
     RDKit          3D

 35 38  0  0  0  0  0  0  0  0999 V2000
   38.0291   23.4742   34.6105 C   0  0  0  0  0  0  0  0  0  0  0  0
   38.2622   24.5685   33.7942 C   0  0  0  0  0  0  0  0  0  0  0  0
   37.7648   24.1719   32.5867 N   0  0  0  0  0  0  0  0  0  0  0  0
   37.2910   22.9513   32.7192 C   0  0  0  0  0  0  0  0  0  0  0  0
   37.4338   22.4759   33.9627 N   0  0  0  0  0  0  0  0  0  0  0  0
   38.3887   23.4030   36.0281 C   0  0  0  0  0  0  0  0  0  0  0  0
   39.5801   22.8187   36.4333 C   0  0  0  0  0  0  0  0  0  0  0  0
   39.9085   22.7593   37.7964 C   0  0  0  0  0  0  0  0  0  0  0  0
   39.0077   23.2958   38.6570 N   0  0  0  0  0  0  0  0  0  0  0  0
   37.8528   23.8613   38.2528 C   0  0  0  0  0  0  0  0  0  0  0  0
   37.5488   23.9127   36.9462 N   0  0  0  0  0  0  0  0  0  0  0  0
   37.0016   21.1674   34.3802 C   0  0  1  0  0  0  0  0  0  0  0  0
   35.8449   20.9676   35.2579 C   0  0  0  0  0  0  0  0  0  0  0  0
   35.6611   20.7773   33.7789 C   0  0  2  0  0  0  0  0  0  0  0  0
   38.7402   25.5024   34.1131 H   0  0  0  0  0  0  0  0  0  0  0  0
   36.8674   22.5321   31.8149 H   0  0  0  0  0  0  0  0  0  0  0  0
   40.2720   22.4035   35.7340 H   0  0  0  0  0  0  0  0  0  0  0  0
   40.8024   22.3266   38.1705 H   0  0  0  0  0  0  0  0  0  0  0  0
   37.1343   24.2877   38.9195 H   0  0  0  0  0  0  0  0  0  0  0  0
   37.7677   20.3636   34.3160 H   0  0  0  0  0  0  0  0  0  0  0  0
   35.9093   20.1285   35.9570 H   0  0  0  0  0  0  0  0  0  0  0  0
   35.4439   21.8864   35.7622 H   0  0  0  0  0  0  0  0  0  0  0  0
   35.0158   21.5832   33.3315 H   0  0  0  0  0  0  0  0  0  0  0  0
   35.4570   19.4674   33.2345 N   0  0  0  0  0  0  0  0  0  0  0  0
   34.3120   18.9745   32.7324 C   0  0  0  0  0  0  0  0  0  0  0  0
   34.2122   17.6955   32.2286 C   0  0  0  0  0  0  0  0  0  0  0  0
   35.3123   16.8587   32.2233 C   0  0  0  0  0  0  0  0  0  0  0  0
   35.2384   15.5333   31.7095 N   0  0  0  0  0  0  0  0  0  0  0  0
   36.4494   17.3730   32.7312 N   0  0  0  0  0  0  0  0  0  0  0  0
   36.5077   18.6259   33.2138 C   0  0  0  0  0  0  0  0  0  0  0  0
   37.6737   18.8884   33.6360 O   0  0  0  0  0  0  0  0  0  0  0  0
   33.4552   19.6393   32.7413 H   0  0  0  0  0  0  0  0  0  0  0  0
   33.2744   17.3242   31.8294 H   0  0  0  0  0  0  0  0  0  0  0  0
   34.5183   14.7963   31.8629 H   0  0  0  0  0  0  0  0  0  0  0  0
   36.0403   15.3040   31.0935 H   0  0  0  0  0  0  0  0  0  0  0  0
  1  6  1  0
  2  1  2  0
  3  4  2  0
  3  2  1  0
  4  5  1  0
  5 12  1  0
  5  1  1  0
  6  7  2  0
  6 11  1  0
  7  8  1  0
  8  9  2  0
 10  9  1  0
 11 10  2  0
 12 13  1  0
 14 12  1  0
 14 13  1  0
  2 15  1  0
  4 16  1  0
  7 17  1  0
  8 18  1  0
 10 19  1  0
 12 20  1  1
 13 21  1  0
 13 22  1  0
 14 23  1  6
 24 25  1  0
 25 26  2  0
 26 27  1  0
 27 28  1  0
 27 29  2  0
 29 30  1  0
 30 31  2  0
 30 24  1  0
 25 32  1  0
 26 33  1  0
 28 34  1  0
 28 35  1  0
 14 24  1  0
M  ISO  8  15  14  16  14  17  14  18  14  19  14  20  13  21  13  22  13
M  ISO  1  23  13
M  END
>  <DihAtoms>  (1) 
11,13,23,24

>  <DihDeg>  (1) 
71.69572630775188

$$$$
