
 OpenBabel03262519473D

 42 45  0  0  1  0  0  0  0  0999 V2000
   37.4610   25.6930   32.9990 N   0  0  0  0  0  0  0  0  0  0  0  0
   37.0050   24.6290   32.3330 C   0  0  0  0  0  0  0  0  0  0  0  0
   35.9590   24.9030   31.4870 C   0  0  0  0  0  0  0  0  0  0  0  0
   35.7580   26.2170   31.6390 N   0  0  0  0  0  0  0  0  0  0  0  0
   36.6610   26.6970   32.5480 C   0  0  0  0  0  0  0  0  0  0  0  0
   37.4660   23.6400   32.4900 H   0  0  0  0  0  0  0  0  0  0  0  0
   35.4920   24.1310   30.8850 H   0  0  0  0  0  0  0  0  0  0  0  0
   36.6620   28.1610   32.8730 C   0  0  1  0  0  0  0  0  0  0  0  0
   36.1810   29.0910   31.8280 C   0  0  0  0  0  0  0  0  0  0  0  0
   35.3220   28.8210   33.0390 C   0  0  2  0  0  0  0  0  0  0  0  0
   37.5060   28.4660   33.4780 H   0  0  0  0  0  0  0  0  0  0  0  0
   35.7220   28.6840   30.8790 H   0  0  0  0  0  0  0  0  0  0  0  0
   36.6260   30.0730   31.6600 H   0  0  0  0  0  0  0  0  0  0  0  0
   34.4570   28.1420   32.9490 H   0  0  0  0  0  0  0  0  0  0  0  0
   35.1140   29.9800   33.8370 N   0  0  0  0  0  0  0  0  0  0  0  0
   36.0280   30.0410   34.8530 C   0  0  0  0  0  3  0  0  0  0  0  0
   36.0150   31.1010   35.7690 C   0  0  0  0  0  3  0  0  0  0  0  0
   35.0570   32.0800   35.6190 C   0  0  0  0  0  0  0  0  0  0  0  0
   34.9360   33.2030   36.4770 N   0  0  0  0  0  0  0  0  0  0  0  0
   34.1830   31.9830   34.6130 N   0  0  0  0  0  0  0  0  0  0  0  0
   34.2200   30.9530   33.7490 C   0  0  0  0  0  0  0  0  0  0  0  0
   33.4240   30.8430   32.8130 O   0  0  0  0  0  0  0  0  0  0  0  0
   35.2290   34.2080   36.2880 H   0  0  0  0  0  0  0  0  0  0  0  0
   34.4880   32.7520   37.3220 H   0  0  0  0  0  0  0  0  0  0  0  0
   38.4740   25.9150   33.9570 C   0  0  0  0  0  0  0  0  0  0  0  0
   39.0140   26.8750   33.7550 H   0  0  0  0  0  0  0  0  0  0  0  0
   39.2560   25.1210   33.8040 H   0  0  0  0  0  0  0  0  0  0  0  0
   37.9780   25.9180   35.3550 C   0  0  1  0  0  0  0  0  0  0  0  0
   36.8620   25.8330   35.3550 H   0  0  0  0  0  0  0  0  0  0  0  0
   38.5440   23.4560   38.1750 C   0  0  0  0  0  0  0  0  0  0  0  0
   37.9680   24.5270   37.4770 C   0  0  0  0  0  0  0  0  0  0  0  0
   38.5170   24.8220   36.1870 C   0  0  0  0  0  0  0  0  0  0  0  0
   39.5640   24.0560   35.6990 N   0  0  0  0  0  0  0  0  0  0  0  0
   40.0740   23.0480   36.4050 C   0  0  0  0  0  0  0  0  0  0  0  0
   39.5580   22.7460   37.6570 N   0  0  0  0  0  0  0  0  0  0  0  0
   38.1240   23.2430   39.1470 H   0  0  0  0  0  0  0  0  0  0  0  0
   37.1520   25.1400   37.8330 H   0  0  0  0  0  0  0  0  0  0  0  0
   40.8880   22.4820   35.9850 H   0  0  0  0  0  0  0  0  0  0  0  0
   38.2550   27.2600   36.0220 C   0  0  0  0  0  0  0  0  0  0  0  0
   38.3990   27.0400   37.1010 H   0  0  0  0  0  0  0  0  0  0  0  0
   37.3940   27.9510   35.9860 H   0  0  0  0  0  0  0  0  0  0  0  0
   39.2100   27.6760   35.6670 H   0  0  0  0  0  0  0  0  0  0  0  0
  1 25  1  0  0  0  0
  2  6  1  0  0  0  0
  2  1  1  0  0  0  0
  3  4  1  0  0  0  0
  3  2  2  0  0  0  0
  4  5  2  0  0  0  0
  5  8  1  0  0  0  0
  5  1  1  0  0  0  0
  7  3  1  0  0  0  0
  8 10  1  0  0  0  0
  8 11  1  1  0  0  0
  9  8  1  0  0  0  0
  9 10  1  0  0  0  0
 10 14  1  6  0  0  0
 10 15  1  0  0  0  0
 12  9  1  0  0  0  0
 13  9  1  0  0  0  0
 15 16  1  0  0  0  0
 16 17  2  0  0  0  0
 18 17  1  0  0  0  0
 18 19  1  0  0  0  0
 19 24  1  0  0  0  0
 20 18  2  0  0  0  0
 21 15  1  0  0  0  0
 21 20  1  0  0  0  0
 22 21  2  0  0  0  0
 23 19  1  0  0  0  0
 25 28  1  0  0  0  0
 26 25  1  0  0  0  0
 27 25  1  0  0  0  0
 28 29  1  6  0  0  0
 28 39  1  0  0  0  0
 28 32  1  0  0  0  0
 30 36  1  0  0  0  0
 31 37  1  0  0  0  0
 31 30  2  0  0  0  0
 32 31  1  0  0  0  0
 33 32  2  0  0  0  0
 33 34  1  0  0  0  0
 34 35  2  0  0  0  0
 35 30  1  0  0  0  0
 38 34  1  0  0  0  0
 39 40  1  0  0  0  0
 41 39  1  0  0  0  0
 42 39  1  0  0  0  0
M  END
>  <minimizedAffinity>
-5.69460535

>  <minimizedRMSD>
1.12072527

$$$$
