REMARK  Name = 
REMARK  5 active torsions:
REMARK  status: ('A' for Active; 'I' for Inactive)
REMARK    1  A    between atoms: C_2  and  C_7
REMARK    2  A    between atoms: C_3  and  C_11
REMARK    3  A    between atoms: C_11  and  C_12
REMARK    4  A    between atoms: C_12  and  C_13
REMARK    5  A    between atoms: C_15  and  N_26
REMARK                            x       y       z     vdW  Elec       q    Type
REMARK                         _______ _______ _______ _____ _____    ______ ____
ROOT
ATOM      1  C   UNL     1      39.026  25.100  35.704  0.00  0.00    +0.000 C 
ATOM      2  H   UNL     1      38.804  25.818  34.907  0.00  0.00    +0.000 HD
ATOM      3  H   UNL     1      39.627  25.703  36.451  0.00  0.00    +0.000 HD
ENDROOT
BRANCH   1   4
ATOM      4  C   UNL     1      37.776  24.667  36.503  0.00  0.00    +0.000 C 
ATOM      5  C   UNL     1      38.010  24.380  37.926  0.00  0.00    +0.000 C 
ATOM      6  C   UNL     1      37.550  23.323  36.947  0.00  0.00    +0.000 C 
ATOM      7  H   UNL     1      36.909  25.260  36.125  0.00  0.00    +0.000 HD
ATOM      8  H   UNL     1      37.316  24.565  38.758  0.00  0.00    +0.000 HD
ATOM      9  H   UNL     1      39.026  24.502  38.272  0.00  0.00    +0.000 HD
ATOM     10  H   UNL     1      38.039  22.463  37.263  0.00  0.00    +0.000 HD
BRANCH   6  11
ATOM     11  N   UNL     1      36.128  22.919  36.927  0.00  0.00    +0.000 N 
ATOM     12  C   UNL     1      35.123  23.800  36.745  0.00  0.00    +0.000 A 
ATOM     13  C   UNL     1      33.788  23.479  36.719  0.00  0.00    +0.000 A 
ATOM     14  C   UNL     1      33.436  22.157  36.891  0.00  0.00    +0.000 A 
ATOM     15  N   UNL     1      32.047  21.857  36.859  0.00  0.00    +0.000 N 
ATOM     16  N   UNL     1      34.439  21.282  37.072  0.00  0.00    +0.000 NA
ATOM     17  C   UNL     1      35.726  21.655  37.088  0.00  0.00    +0.000 A 
ATOM     18  O   UNL     1      36.520  20.735  37.265  0.00  0.00    +0.000 OA
ATOM     19  H   UNL     1      31.636  22.009  37.815  0.00  0.00    +0.000 HD
ATOM     20  H   UNL     1      31.423  21.528  36.064  0.00  0.00    +0.000 HD
ENDBRANCH   6  11
ENDBRANCH   1   4
BRANCH   1  21
ATOM     21  C   UNL     1      39.789  23.908  35.374  0.00  0.00    +0.000 C 
ATOM     22  H   UNL     1      39.762  23.917  34.219  0.00  0.00    +0.000 HD
ATOM     23  H   UNL     1      39.224  23.036  35.550  0.00  0.00    +0.000 HD
BRANCH  21  26
ATOM     24  C   UNL     1      43.127  23.341  36.541  0.00  0.00    +0.000 A 
ATOM     25  C   UNL     1      41.726  23.106  36.401  0.00  0.00    +0.000 A 
ATOM     26  C   UNL     1      41.173  24.038  35.621  0.00  0.00    +0.000 A 
ATOM     27  N   UNL     1      41.909  25.075  35.048  0.00  0.00    +0.000 NA
ATOM     28  C   UNL     1      43.201  25.225  35.223  0.00  0.00    +0.000 A 
ATOM     29  N   UNL     1      43.818  24.346  35.980  0.00  0.00    +0.000 NA
ATOM     30  H   UNL     1      43.773  22.678  37.150  0.00  0.00    +0.000 HD
ATOM     31  H   UNL     1      43.662  26.054  34.737  0.00  0.00    +0.000 HD
BRANCH  25  32
ATOM     32  C   UNL     1      41.235  21.966  37.085  0.00  0.00    +0.000 C 
ATOM     33  F   UNL     1      40.491  22.320  38.238  0.00  0.00    +0.000 F 
ATOM     34  F   UNL     1      42.031  21.178  37.830  0.00  0.00    +0.000 F 
ATOM     35  F   UNL     1      40.142  21.288  36.550  0.00  0.00    +0.000 F 
ENDBRANCH  25  32
ENDBRANCH  21  26
ENDBRANCH   1  21
TORSDOF 5
