REMARK  Name = 
REMARK  6 active torsions:
REMARK  status: ('A' for Active; 'I' for Inactive)
REMARK    1  A    between atoms: C_1  and  C_4
REMARK    2  A    between atoms: C_1  and  C_8
REMARK    3  A    between atoms: C_1  and  C_9
REMARK    4  A    between atoms: C_9  and  N_10
REMARK    5  A    between atoms: C_14  and  C_15
REMARK    6  A    between atoms: C_17  and  N_33
REMARK                            x       y       z     vdW  Elec       q    Type
REMARK                         _______ _______ _______ _____ _____    ______ ____
ROOT
ATOM      1  N   UNL     1      37.581  25.437  33.071  0.00  0.00    +0.000 N 
ATOM      2  C   UNL     1      37.056  24.328  32.544  0.00  0.00    +0.000 A 
ATOM      3  C   UNL     1      36.054  24.559  31.634  0.00  0.00    +0.000 A 
ATOM      4  N   UNL     1      35.956  25.893  31.596  0.00  0.00    +0.000 NA
ATOM      5  C   UNL     1      36.874  26.426  32.459  0.00  0.00    +0.000 A 
ATOM      6  H   UNL     1      37.433  23.338  32.852  0.00  0.00    +0.000 HD
ATOM      7  H   UNL     1      35.541  23.748  31.130  0.00  0.00    +0.000 HD
ENDROOT
BRANCH   5   8
ATOM      8  C   UNL     1      36.985  27.916  32.578  0.00  0.00    +0.000 C 
ATOM      9  C   UNL     1      35.856  28.726  32.069  0.00  0.00    +0.000 C 
ATOM     10  C   UNL     1      36.066  28.590  33.558  0.00  0.00    +0.000 C 
ATOM     11  H   UNL     1      37.990  28.286  32.420  0.00  0.00    +0.000 HD
ATOM     12  H   UNL     1      34.909  28.217  31.723  0.00  0.00    +0.000 HD
ATOM     13  H   UNL     1      35.995  29.684  31.566  0.00  0.00    +0.000 HD
ATOM     14  H   UNL     1      35.422  27.905  34.135  0.00  0.00    +0.000 HD
BRANCH  10  15
ATOM     15  N   UNL     1      36.366  29.829  34.188  0.00  0.00    +0.000 N 
ATOM     16  C   UNL     1      36.785  30.753  33.269  0.00  0.00    +0.000 A 
ATOM     17  C   UNL     1      37.137  32.050  33.663  0.00  0.00    +0.000 A 
ATOM     18  C   UNL     1      37.050  32.371  35.001  0.00  0.00    +0.000 A 
ATOM     19  N   UNL     1      37.376  33.647  35.528  0.00  0.00    +0.000 N 
ATOM     20  N   UNL     1      36.636  31.440  35.865  0.00  0.00    +0.000 NA
ATOM     21  C   UNL     1      36.305  30.202  35.456  0.00  0.00    +0.000 A 
ATOM     22  O   UNL     1      35.921  29.327  36.236  0.00  0.00    +0.000 OA
ATOM     23  H   UNL     1      36.714  34.414  35.848  0.00  0.00    +0.000 HD
ATOM     24  H   UNL     1      38.434  33.600  35.504  0.00  0.00    +0.000 HD
ENDBRANCH  10  15
ENDBRANCH   5   8
BRANCH   1  25
ATOM     25  C   UNL     1      38.587  25.714  34.023  0.00  0.00    +0.000 C 
ATOM     26  H   UNL     1      39.111  26.674  33.784  0.00  0.00    +0.000 HD
ATOM     27  H   UNL     1      39.383  24.928  33.903  0.00  0.00    +0.000 HD
BRANCH  25  28
ATOM     28  C   UNL     1      38.086  25.763  35.418  0.00  0.00    +0.000 C 
ATOM     29  H   UNL     1      36.971  25.663  35.418  0.00  0.00    +0.000 HD
BRANCH  28  32
ATOM     30  C   UNL     1      38.636  23.374  38.303  0.00  0.00    +0.000 A 
ATOM     31  C   UNL     1      38.043  24.405  37.561  0.00  0.00    +0.000 A 
ATOM     32  C   UNL     1      38.637  24.707  36.293  0.00  0.00    +0.000 A 
ATOM     33  N   UNL     1      39.742  23.986  35.867  0.00  0.00    +0.000 NA
ATOM     34  C   UNL     1      40.266  23.015  36.613  0.00  0.00    +0.000 A 
ATOM     35  N   UNL     1      39.706  22.707  37.845  0.00  0.00    +0.000 NA
ATOM     36  H   UNL     1      38.181  23.155  39.258  0.00  0.00    +0.000 HD
ATOM     37  H   UNL     1      37.182  24.983  37.868  0.00  0.00    +0.000 HD
ATOM     38  H   UNL     1      41.125  22.483  36.241  0.00  0.00    +0.000 HD
ENDBRANCH  28  32
BRANCH  28  39
ATOM     39  C   UNL     1      38.343  27.134  36.034  0.00  0.00    +0.000 C 
ATOM     40  H   UNL     1      38.486  26.957  37.121  0.00  0.00    +0.000 HD
ATOM     41  H   UNL     1      37.472  27.811  35.969  0.00  0.00    +0.000 HD
ATOM     42  H   UNL     1      39.293  27.549  35.666  0.00  0.00    +0.000 HD
ENDBRANCH  28  39
ENDBRANCH  25  28
ENDBRANCH   1  25
TORSDOF 6
