
 OpenBabel03262518523D

 29 31  0  0  0  0  0  0  0  0999 V2000
   39.8690   22.7610   37.4150 C   0  0  0  0  0  0  0  0  0  0  0  0
   39.1050   23.2510   38.4970 C   0  0  0  0  0  0  0  0  0  0  0  0
   37.7010   23.3020   38.3110 C   0  0  0  0  0  0  0  0  0  0  0  0
   37.1860   22.8880   37.1300 N   0  0  0  0  0  0  0  0  0  0  0  0
   37.9760   22.4220   36.1150 C   0  0  0  0  0  0  0  0  0  0  0  0
   39.3080   22.3590   36.2540 N   0  0  0  0  0  0  0  0  0  0  0  0
   37.4260   21.9880   34.8740 N   0  0  0  0  0  0  0  0  0  0  0  0
   38.1070   22.3920   33.7540 C   0  0  0  0  0  0  0  0  0  0  0  0
   37.5960   21.9870   32.5310 C   0  0  0  0  0  0  0  0  0  0  0  0
   36.4340   21.2010   32.5110 C   0  0  0  0  0  0  0  0  0  0  0  0
   35.9750   20.8360   31.3880 O   0  0  0  0  0  0  0  0  0  0  0  0
   35.8250   20.8460   33.6490 N   0  0  0  0  0  0  0  0  0  0  0  0
   36.3230   21.2430   34.8480 C   0  0  0  0  0  0  0  0  0  0  0  0
   35.8070   20.9480   35.9360 O   0  0  0  0  0  0  0  0  0  0  0  0
   40.9450   22.7090   37.5250 H   0  0  0  0  0  0  0  0  0  0  0  0
   39.5510   23.5700   39.4180 H   0  0  0  0  0  0  0  0  0  0  0  0
   37.0550   23.6650   39.0930 H   0  0  0  0  0  0  0  0  0  0  0  0
   38.9930   22.9930   33.8050 H   0  0  0  0  0  0  0  0  0  0  0  0
   34.9560   20.2590   33.6330 H   0  0  0  0  0  0  0  0  0  0  0  0
   38.2140   22.3420   31.3000 N   0  0  0  0  0  0  0  0  0  0  0  0
   39.0820   21.4460   30.7950 C   0  0  0  0  0  0  0  0  0  0  0  0
   39.7030   21.7540   29.6010 C   0  0  0  0  0  0  0  0  0  0  0  0
   39.3710   22.9650   29.0300 C   0  0  0  0  0  0  0  0  0  0  0  0
   39.9200   23.4230   27.8100 N   0  0  0  0  0  0  0  0  0  0  0  0
   38.4840   23.8480   29.5730 N   0  0  0  0  0  0  0  0  0  0  0  0
   37.8880   23.5220   30.7470 C   0  0  0  0  0  0  0  0  0  0  0  0
   37.0610   24.2800   31.3100 O   0  0  0  0  0  0  0  0  0  0  0  0
   40.6740   24.1230   28.0030 H   0  0  0  0  0  0  0  0  0  0  0  0
   39.9820   23.4400   26.7700 H   0  0  0  0  0  0  0  0  0  0  0  0
  1 15  1  0  0  0  0
  1  2  1  0  0  0  0
  2 16  1  0  0  0  0
  3  2  2  0  0  0  0
  3 17  1  0  0  0  0
  4  3  1  0  0  0  0
  5  6  1  0  0  0  0
  5  4  2  0  0  0  0
  6  1  2  0  0  0  0
  7  5  1  0  0  0  0
  8 18  1  0  0  0  0
  8  7  1  0  0  0  0
  9  8  2  0  0  0  0
 10  9  1  0  0  0  0
 10 12  1  0  0  0  0
 11 10  2  0  0  0  0
 12 13  1  0  0  0  0
 13  7  1  0  0  0  0
 13 14  2  0  0  0  0
 19 12  1  0  0  0  0
 20  9  1  0  0  0  0
 21 20  1  0  0  0  0
 22 21  2  0  0  0  0
 23 25  2  0  0  0  0
 23 22  1  0  0  0  0
 24 28  1  0  0  0  0
 24 23  1  0  0  0  0
 25 26  1  0  0  0  0
 26 20  1  0  0  0  0
 26 27  2  0  0  0  0
 29 24  1  0  0  0  0
M  END
>  <minimizedAffinity>
-5.18489742

>  <minimizedRMSD>
1.56853747

$$$$
