
 OpenBabel03262519563D

 33 36  0  0  1  0  0  0  0  0999 V2000
   37.3110   21.5920   34.0170 C   0  0  1  0  0  0  0  0  0  0  0  0
   36.0680   21.2040   34.6920 C   0  0  0  0  0  0  0  0  0  0  0  0
   36.1050   21.1740   33.1900 C   0  0  2  0  0  0  0  0  0  0  0  0
   38.1490   20.8620   33.9810 H   0  0  0  0  0  0  0  0  0  0  0  0
   36.1130   20.2960   35.3010 H   0  0  0  0  0  0  0  0  0  0  0  0
   35.5200   22.0240   35.2250 H   0  0  0  0  0  0  0  0  0  0  0  0
   35.4560   21.9750   32.7400 H   0  0  0  0  0  0  0  0  0  0  0  0
   36.0980   19.9250   32.4870 N   0  0  0  0  0  0  0  0  0  0  0  0
   35.6190   18.7520   32.9360 C   0  0  0  0  0  3  0  0  0  0  0  0
   35.6560   17.5990   32.1830 C   0  0  0  0  0  3  0  0  0  0  0  0
   36.2000   17.6110   30.9130 C   0  0  0  0  0  0  0  0  0  0  0  0
   36.2500   16.4350   30.1130 N   0  0  0  0  0  0  0  0  0  0  0  0
   36.6730   18.7960   30.4820 N   0  0  0  0  0  0  0  0  0  0  0  0
   36.6190   19.9010   31.2460 C   0  0  0  0  0  0  0  0  0  0  0  0
   37.1220   20.8910   30.6360 O   0  0  0  0  0  0  0  0  0  0  0  0
   36.5400   15.4660   30.3650 H   0  0  0  0  0  0  0  0  0  0  0  0
   35.9470   16.6080   29.1360 H   0  0  0  0  0  0  0  0  0  0  0  0
   38.1680   23.9020   34.6170 C   0  0  0  0  0  0  0  0  0  0  0  0
   38.3660   25.1110   33.9700 C   0  0  0  0  0  0  0  0  0  0  0  0
   37.9570   24.8570   32.6940 N   0  0  0  0  0  0  0  0  0  0  0  0
   37.5600   23.6030   32.6320 C   0  0  0  0  0  0  0  0  0  0  0  0
   37.6740   22.9690   33.8060 N   0  0  0  0  0  0  0  0  0  0  0  0
   38.7640   26.0180   34.4390 H   0  0  0  0  0  0  0  0  0  0  0  0
   37.2100   23.2890   31.6560 H   0  0  0  0  0  0  0  0  0  0  0  0
   38.4620   23.6570   36.0290 C   0  0  0  0  0  0  0  0  0  0  0  0
   39.6320   23.0190   36.4140 C   0  0  0  0  0  0  0  0  0  0  0  0
   39.8960   22.7920   37.7730 C   0  0  0  0  0  0  0  0  0  0  0  0
   38.9580   23.2270   38.6510 N   0  0  0  0  0  0  0  0  0  0  0  0
   37.8240   23.8450   38.2670 C   0  0  0  0  0  0  0  0  0  0  0  0
   37.5810   24.0570   36.9630 N   0  0  0  0  0  0  0  0  0  0  0  0
   40.3550   22.6870   35.7020 H   0  0  0  0  0  0  0  0  0  0  0  0
   40.7710   22.3110   38.1330 H   0  0  0  0  0  0  0  0  0  0  0  0
   37.0760   24.1930   38.9460 H   0  0  0  0  0  0  0  0  0  0  0  0
  1  4  1  1  0  0  0
  1  2  1  0  0  0  0
  2  6  1  0  0  0  0
  2  5  1  0  0  0  0
  3  7  1  6  0  0  0
  3  1  1  0  0  0  0
  3  2  1  0  0  0  0
  8  9  1  0  0  0  0
  8  3  1  0  0  0  0
 10  9  2  0  0  0  0
 11 10  1  0  0  0  0
 12 16  1  0  0  0  0
 12 11  1  0  0  0  0
 13 11  2  0  0  0  0
 13 14  1  0  0  0  0
 14  8  1  0  0  0  0
 15 14  2  0  0  0  0
 17 12  1  0  0  0  0
 18 25  1  0  0  0  0
 19 23  1  0  0  0  0
 19 18  2  0  0  0  0
 20 19  1  0  0  0  0
 21 20  2  0  0  0  0
 21 22  1  0  0  0  0
 22  1  1  0  0  0  0
 22 18  1  0  0  0  0
 24 21  1  0  0  0  0
 25 26  2  0  0  0  0
 25 30  1  0  0  0  0
 26 27  1  0  0  0  0
 27 32  1  0  0  0  0
 27 28  2  0  0  0  0
 29 28  1  0  0  0  0
 29 33  1  0  0  0  0
 30 29  2  0  0  0  0
 31 26  1  0  0  0  0
M  END
>  <minimizedAffinity>
-5.09598827

>  <minimizedRMSD>
1.69899714

$$$$
