
 OpenBabel03262519553D

 33 36  0  0  1  0  0  0  0  0999 V2000
   37.2700   21.5430   34.0130 C   0  0  1  0  0  0  0  0  0  0  0  0
   36.0180   21.1740   34.6790 C   0  0  0  0  0  0  0  0  0  0  0  0
   36.0710   21.1220   33.1780 C   0  0  2  0  0  0  0  0  0  0  0  0
   38.1030   20.8070   33.9960 H   0  0  0  0  0  0  0  0  0  0  0  0
   36.0490   20.2730   35.3000 H   0  0  0  0  0  0  0  0  0  0  0  0
   35.4690   22.0050   35.1950 H   0  0  0  0  0  0  0  0  0  0  0  0
   35.4330   21.9220   32.7100 H   0  0  0  0  0  0  0  0  0  0  0  0
   36.0630   19.8640   32.4920 N   0  0  0  0  0  0  0  0  0  0  0  0
   35.5740   18.7000   32.9540 C   0  0  0  0  0  3  0  0  0  0  0  0
   35.6120   17.5350   32.2180 C   0  0  0  0  0  3  0  0  0  0  0  0
   36.1660   17.5270   30.9510 C   0  0  0  0  0  0  0  0  0  0  0  0
   36.2170   16.3390   30.1680 N   0  0  0  0  0  0  0  0  0  0  0  0
   36.6490   18.7040   30.5090 N   0  0  0  0  0  0  0  0  0  0  0  0
   36.5940   19.8190   31.2560 C   0  0  0  0  0  0  0  0  0  0  0  0
   37.1070   20.7980   30.6360 O   0  0  0  0  0  0  0  0  0  0  0  0
   36.4990   15.3730   30.4380 H   0  0  0  0  0  0  0  0  0  0  0  0
   35.9220   16.5000   29.1880 H   0  0  0  0  0  0  0  0  0  0  0  0
   38.1550   23.8500   34.5860 C   0  0  0  0  0  0  0  0  0  0  0  0
   38.3600   25.0520   33.9280 C   0  0  0  0  0  0  0  0  0  0  0  0
   37.9390   24.7900   32.6570 N   0  0  0  0  0  0  0  0  0  0  0  0
   37.5290   23.5400   32.6090 C   0  0  0  0  0  0  0  0  0  0  0  0
   37.6450   22.9150   33.7880 N   0  0  0  0  0  0  0  0  0  0  0  0
   38.7710   25.9580   34.3860 H   0  0  0  0  0  0  0  0  0  0  0  0
   37.1680   23.2210   31.6390 H   0  0  0  0  0  0  0  0  0  0  0  0
   38.4570   23.6140   35.9990 C   0  0  0  0  0  0  0  0  0  0  0  0
   39.6420   23.0040   36.3820 C   0  0  0  0  0  0  0  0  0  0  0  0
   39.9150   22.7850   37.7410 C   0  0  0  0  0  0  0  0  0  0  0  0
   38.9690   23.2000   38.6200 N   0  0  0  0  0  0  0  0  0  0  0  0
   37.8200   23.7910   38.2370 C   0  0  0  0  0  0  0  0  0  0  0  0
   37.5690   23.9950   36.9340 N   0  0  0  0  0  0  0  0  0  0  0  0
   40.3710   22.6870   35.6690 H   0  0  0  0  0  0  0  0  0  0  0  0
   40.8010   22.3250   38.0990 H   0  0  0  0  0  0  0  0  0  0  0  0
   37.0650   24.1230   38.9170 H   0  0  0  0  0  0  0  0  0  0  0  0
  1  4  1  1  0  0  0
  1  2  1  0  0  0  0
  2  6  1  0  0  0  0
  2  5  1  0  0  0  0
  3  7  1  6  0  0  0
  3  1  1  0  0  0  0
  3  2  1  0  0  0  0
  8  9  1  0  0  0  0
  8  3  1  0  0  0  0
 10  9  2  0  0  0  0
 11 10  1  0  0  0  0
 12 16  1  0  0  0  0
 12 11  1  0  0  0  0
 13 11  2  0  0  0  0
 13 14  1  0  0  0  0
 14  8  1  0  0  0  0
 15 14  2  0  0  0  0
 17 12  1  0  0  0  0
 18 25  1  0  0  0  0
 19 23  1  0  0  0  0
 19 18  2  0  0  0  0
 20 19  1  0  0  0  0
 21 20  2  0  0  0  0
 21 22  1  0  0  0  0
 22  1  1  0  0  0  0
 22 18  1  0  0  0  0
 24 21  1  0  0  0  0
 25 26  2  0  0  0  0
 25 30  1  0  0  0  0
 26 27  1  0  0  0  0
 27 32  1  0  0  0  0
 27 28  2  0  0  0  0
 29 28  1  0  0  0  0
 29 33  1  0  0  0  0
 30 29  2  0  0  0  0
 31 26  1  0  0  0  0
M  END
>  <minimizedAffinity>
-5.10110044

>  <minimizedRMSD>
0.886673152

$$$$
