
 OpenBabel03262517313D

 26 28  0  0  0  0  0  0  0  0999 V2000
   38.0580   21.8490   34.6460 C   0  0  0  0  0  0  0  0  0  0  0  0
   36.7890   21.5570   34.3610 C   0  0  0  0  0  0  0  0  0  0  0  0
   36.2820   21.0500   33.2300 C   0  0  0  0  0  0  0  0  0  0  0  0
   37.4000   20.8400   32.2750 C   0  0  0  0  0  0  0  0  0  0  0  0
   38.9860   21.4010   33.1420 S   0  0  0  0  0  0  0  0  0  0  0  0
   35.8800   21.6720   34.9950 H   0  0  0  0  0  0  0  0  0  0  0  0
   35.4220   20.7250   32.7060 H   0  0  0  0  0  0  0  0  0  0  0  0
   37.5510   20.3490   30.9500 N   0  0  0  0  0  0  0  0  0  0  0  0
   38.5770   20.6550   30.1380 C   0  0  0  0  0  0  0  0  0  0  0  0
   38.5430   20.0710   28.8720 C   0  0  0  0  0  0  0  0  0  0  0  0
   37.5220   19.2330   28.4750 C   0  0  0  0  0  0  0  0  0  0  0  0
   37.5000   18.6450   27.1830 N   0  0  0  0  0  0  0  0  0  0  0  0
   36.5140   18.9650   29.3460 N   0  0  0  0  0  0  0  0  0  0  0  0
   36.5420   19.5290   30.5770 C   0  0  0  0  0  0  0  0  0  0  0  0
   35.5650   19.2220   31.3110 O   0  0  0  0  0  0  0  0  0  0  0  0
   38.3000   18.2510   26.6620 H   0  0  0  0  0  0  0  0  0  0  0  0
   36.7180   18.4970   26.5300 H   0  0  0  0  0  0  0  0  0  0  0  0
   39.9830   22.6880   37.5790 C   0  0  0  0  0  0  0  0  0  0  0  0
   39.0590   23.3940   38.3860 C   0  0  0  0  0  0  0  0  0  0  0  0
   37.7680   23.5870   37.9250 C   0  0  0  0  0  0  0  0  0  0  0  0
   37.4420   23.0790   36.6930 N   0  0  0  0  0  0  0  0  0  0  0  0
   38.3580   22.4030   35.9400 C   0  0  0  0  0  0  0  0  0  0  0  0
   39.6230   22.2070   36.3800 N   0  0  0  0  0  0  0  0  0  0  0  0
   40.9750   22.5680   37.9910 H   0  0  0  0  0  0  0  0  0  0  0  0
   39.2940   23.8030   39.3610 H   0  0  0  0  0  0  0  0  0  0  0  0
   36.9720   24.0990   38.4260 H   0  0  0  0  0  0  0  0  0  0  0  0
  1 22  1  0  0  0  0
  2  1  2  0  0  0  0
  2  6  1  0  0  0  0
  3  2  1  0  0  0  0
  4  5  1  0  0  0  0
  4  3  2  0  0  0  0
  5  1  1  0  0  0  0
  7  3  1  0  0  0  0
  8  4  1  0  0  0  0
  9  8  1  0  0  0  0
 10  9  2  0  0  0  0
 11 10  1  0  0  0  0
 11 13  2  0  0  0  0
 12 11  1  0  0  0  0
 13 14  1  0  0  0  0
 14  8  1  0  0  0  0
 14 15  2  0  0  0  0
 16 12  1  0  0  0  0
 17 12  1  0  0  0  0
 18 24  1  0  0  0  0
 18 19  1  0  0  0  0
 19 25  1  0  0  0  0
 20 19  2  0  0  0  0
 20 26  1  0  0  0  0
 21 20  1  0  0  0  0
 22 23  1  0  0  0  0
 22 21  2  0  0  0  0
 23 18  2  0  0  0  0
M  END
>  <minimizedAffinity>
-4.51212215

>  <minimizedRMSD>
1.67058337

$$$$
