REMARK  Name = 
REMARK  3 active torsions:
REMARK  status: ('A' for Active; 'I' for Inactive)
REMARK    1  A    between atoms: C_1  and  C_6
REMARK    2  A    between atoms: N_5  and  C_12
REMARK    3  A    between atoms: C_14  and  N_24
REMARK                            x       y       z     vdW  Elec       q    Type
REMARK                         _______ _______ _______ _____ _____    ______ ____
ROOT
ATOM      1  C   UNL     1      37.002  21.167  34.380  0.00  0.00    +0.000 C 
ATOM      2  C   UNL     1      35.845  20.968  35.258  0.00  0.00    +0.000 C 
ATOM      3  C   UNL     1      35.661  20.777  33.779  0.00  0.00    +0.000 C 
ATOM      4  H   UNL     1      37.768  20.364  34.316  0.00  0.00    +0.000 HD
ATOM      5  H   UNL     1      35.909  20.128  35.957  0.00  0.00    +0.000 HD
ATOM      6  H   UNL     1      35.444  21.886  35.762  0.00  0.00    +0.000 HD
ATOM      7  H   UNL     1      35.016  21.583  33.331  0.00  0.00    +0.000 HD
ENDROOT
BRANCH   3   8
ATOM      8  N   UNL     1      35.457  19.467  33.234  0.00  0.00    +0.000 N 
ATOM      9  C   UNL     1      34.422  18.647  33.480  0.00  0.00    +0.000 A 
ATOM     10  C   UNL     1      34.312  17.398  32.907  0.00  0.00    +0.000 A 
ATOM     11  C   UNL     1      35.285  16.939  32.040  0.00  0.00    +0.000 A 
ATOM     12  N   UNL     1      35.198  15.654  31.433  0.00  0.00    +0.000 N 
ATOM     13  N   UNL     1      36.314  17.778  31.808  0.00  0.00    +0.000 NA
ATOM     14  C   UNL     1      36.386  18.989  32.386  0.00  0.00    +0.000 A 
ATOM     15  O   UNL     1      37.437  19.597  32.021  0.00  0.00    +0.000 OA
ATOM     16  H   UNL     1      34.956  14.732  31.853  0.00  0.00    +0.000 HD
ATOM     17  H   UNL     1      35.415  15.681  30.420  0.00  0.00    +0.000 HD
ENDBRANCH   3   8
BRANCH   1  22
ATOM     18  C   UNL     1      38.029  23.474  34.611  0.00  0.00    +0.000 A 
ATOM     19  C   UNL     1      38.262  24.569  33.794  0.00  0.00    +0.000 A 
ATOM     20  N   UNL     1      37.765  24.172  32.587  0.00  0.00    +0.000 NA
ATOM     21  C   UNL     1      37.291  22.951  32.719  0.00  0.00    +0.000 A 
ATOM     22  N   UNL     1      37.434  22.476  33.963  0.00  0.00    +0.000 N 
ATOM     23  H   UNL     1      38.740  25.502  34.113  0.00  0.00    +0.000 HD
ATOM     24  H   UNL     1      36.867  22.532  31.815  0.00  0.00    +0.000 HD
BRANCH  18  25
ATOM     25  C   UNL     1      38.389  23.403  36.028  0.00  0.00    +0.000 A 
ATOM     26  C   UNL     1      39.580  22.819  36.433  0.00  0.00    +0.000 A 
ATOM     27  C   UNL     1      39.908  22.759  37.796  0.00  0.00    +0.000 A 
ATOM     28  N   UNL     1      39.008  23.296  38.657  0.00  0.00    +0.000 NA
ATOM     29  C   UNL     1      37.853  23.861  38.253  0.00  0.00    +0.000 A 
ATOM     30  N   UNL     1      37.549  23.913  36.946  0.00  0.00    +0.000 NA
ATOM     31  H   UNL     1      40.272  22.404  35.734  0.00  0.00    +0.000 HD
ATOM     32  H   UNL     1      40.802  22.327  38.170  0.00  0.00    +0.000 HD
ATOM     33  H   UNL     1      37.134  24.288  38.919  0.00  0.00    +0.000 HD
ENDBRANCH  18  25
ENDBRANCH   1  22
TORSDOF 3
