
 OpenBabel03262519563D

 33 36  0  0  1  0  0  0  0  0999 V2000
   38.8590   21.7860   33.9080 C   0  0  1  0  0  0  0  0  0  0  0  0
   37.4810   22.2230   34.1510 C   0  0  0  0  0  0  0  0  0  0  0  0
   37.9750   22.1720   32.7330 C   0  0  2  0  0  0  0  0  0  0  0  0
   39.0900   20.7000   33.9520 H   0  0  0  0  0  0  0  0  0  0  0  0
   36.8020   21.4710   34.5650 H   0  0  0  0  0  0  0  0  0  0  0  0
   37.3600   23.2090   34.6710 H   0  0  0  0  0  0  0  0  0  0  0  0
   38.0850   23.2020   32.2920 H   0  0  0  0  0  0  0  0  0  0  0  0
   37.4860   21.1750   31.8270 N   0  0  0  0  0  0  0  0  0  0  0  0
   36.3950   20.4070   31.9890 C   0  0  0  0  0  3  0  0  0  0  0  0
   36.0020   19.4700   31.0580 C   0  0  0  0  0  3  0  0  0  0  0  0
   36.7350   19.2860   29.9000 C   0  0  0  0  0  0  0  0  0  0  0  0
   36.3540   18.3250   28.9220 N   0  0  0  0  0  0  0  0  0  0  0  0
   37.8250   20.0650   29.7580 N   0  0  0  0  0  0  0  0  0  0  0  0
   38.1760   20.9690   30.6900 C   0  0  0  0  0  0  0  0  0  0  0  0
   39.2290   21.5830   30.3420 O   0  0  0  0  0  0  0  0  0  0  0  0
   36.0480   17.3360   29.0390 H   0  0  0  0  0  0  0  0  0  0  0  0
   36.3970   18.7060   27.9580 H   0  0  0  0  0  0  0  0  0  0  0  0
   40.3160   23.5410   35.0160 C   0  0  0  0  0  0  0  0  0  0  0  0
   41.5130   24.1850   34.7470 C   0  0  0  0  0  0  0  0  0  0  0  0
   41.9000   23.6450   33.5560 N   0  0  0  0  0  0  0  0  0  0  0  0
   40.9900   22.7680   33.1870 C   0  0  0  0  0  0  0  0  0  0  0  0
   39.9850   22.6700   34.0670 N   0  0  0  0  0  0  0  0  0  0  0  0
   41.9800   24.9400   35.3900 H   0  0  0  0  0  0  0  0  0  0  0  0
   41.1950   22.2740   32.2460 H   0  0  0  0  0  0  0  0  0  0  0  0
   39.4940   23.7770   36.2040 C   0  0  0  0  0  0  0  0  0  0  0  0
   39.6150   22.9710   37.3270 C   0  0  0  0  0  0  0  0  0  0  0  0
   38.8180   23.2120   38.4570 C   0  0  0  0  0  0  0  0  0  0  0  0
   37.9530   24.2530   38.3730 N   0  0  0  0  0  0  0  0  0  0  0  0
   37.8430   25.0300   37.2770 C   0  0  0  0  0  0  0  0  0  0  0  0
   38.6110   24.7910   36.2020 N   0  0  0  0  0  0  0  0  0  0  0  0
   40.3050   22.1580   37.3670 H   0  0  0  0  0  0  0  0  0  0  0  0
   38.8630   22.6340   39.3450 H   0  0  0  0  0  0  0  0  0  0  0  0
   37.1660   25.8530   37.1960 H   0  0  0  0  0  0  0  0  0  0  0  0
  1  4  1  1  0  0  0
  1 22  1  0  0  0  0
  1  2  1  0  0  0  0
  2  5  1  0  0  0  0
  2  6  1  0  0  0  0
  3  7  1  6  0  0  0
  3  1  1  0  0  0  0
  3  2  1  0  0  0  0
  8  9  1  0  0  0  0
  8  3  1  0  0  0  0
 10  9  2  0  0  0  0
 11 10  1  0  0  0  0
 12 16  1  0  0  0  0
 12 11  1  0  0  0  0
 13 11  2  0  0  0  0
 13 14  1  0  0  0  0
 14  8  1  0  0  0  0
 15 14  2  0  0  0  0
 17 12  1  0  0  0  0
 18 25  1  0  0  0  0
 19 18  2  0  0  0  0
 19 23  1  0  0  0  0
 20 19  1  0  0  0  0
 21 20  2  0  0  0  0
 21 22  1  0  0  0  0
 22 18  1  0  0  0  0
 24 21  1  0  0  0  0
 25 26  1  0  0  0  0
 26 31  1  0  0  0  0
 26 27  2  0  0  0  0
 27 32  1  0  0  0  0
 28 27  1  0  0  0  0
 29 28  2  0  0  0  0
 30 25  2  0  0  0  0
 30 29  1  0  0  0  0
 33 29  1  0  0  0  0
M  END
>  <minimizedAffinity>
-4.42403269

>  <minimizedRMSD>
2.83182907

$$$$
