REMARK  Name = 
REMARK  4 active torsions:
REMARK  status: ('A' for Active; 'I' for Inactive)
REMARK    1  A    between atoms: C_1  and  C_6
REMARK    2  A    between atoms: N_5  and  C_12
REMARK    3  A    between atoms: C_14  and  C_15
REMARK    4  A    between atoms: C_14  and  N_27
REMARK                            x       y       z     vdW  Elec       q    Type
REMARK                         _______ _______ _______ _____ _____    ______ ____
ROOT
ATOM      1  C   UNL     1      37.872  23.698  33.502  0.00  0.00    +0.000 A 
ATOM      2  C   UNL     1      37.469  22.663  32.664  0.00  0.00    +0.000 A 
ATOM      3  N   UNL     1      37.481  21.565  33.487  0.00  0.00    +0.000 NA
ATOM      4  C   UNL     1      37.865  21.968  34.693  0.00  0.00    +0.000 A 
ATOM      5  N   UNL     1      38.111  23.272  34.731  0.00  0.00    +0.000 N 
ATOM      6  H   UNL     1      37.220  22.796  31.604  0.00  0.00    +0.000 HD
ATOM      7  H   UNL     1      37.926  21.199  35.469  0.00  0.00    +0.000 HD
ENDROOT
BRANCH   1   8
ATOM      8  C   UNL     1      38.021  25.082  33.078  0.00  0.00    +0.000 A 
ATOM      9  C   UNL     1      39.303  25.586  32.773  0.00  0.00    +0.000 A 
ATOM     10  C   UNL     1      39.390  26.935  32.360  0.00  0.00    +0.000 A 
ATOM     11  N   UNL     1      38.238  27.653  32.284  0.00  0.00    +0.000 NA
ATOM     12  C   UNL     1      37.027  27.125  32.588  0.00  0.00    +0.000 A 
ATOM     13  N   UNL     1      36.909  25.847  32.983  0.00  0.00    +0.000 NA
ATOM     14  H   UNL     1      40.148  24.930  32.867  0.00  0.00    +0.000 HD
ATOM     15  H   UNL     1      40.361  27.330  32.125  0.00  0.00    +0.000 HD
ATOM     16  H   UNL     1      36.218  27.828  32.475  0.00  0.00    +0.000 HD
ENDBRANCH   1   8
BRANCH   5  17
ATOM     17  C   UNL     1      38.529  23.946  35.900  0.00  0.00    +0.000 C 
ATOM     18  C   UNL     1      38.077  25.231  36.364  0.00  0.00    +0.000 C 
ATOM     19  C   UNL     1      37.559  23.921  37.030  0.00  0.00    +0.000 C 
ATOM     20  H   UNL     1      39.610  23.691  36.178  0.00  0.00    +0.000 HD
ATOM     21  H   UNL     1      38.685  25.873  37.016  0.00  0.00    +0.000 HD
ATOM     22  H   UNL     1      37.319  25.774  35.794  0.00  0.00    +0.000 HD
BRANCH  19  23
ATOM     23  N   UNL     1      36.088  23.979  36.949  0.00  0.00    +0.000 N 
ATOM     24  C   UNL     1      35.504  22.757  37.009  0.00  0.00    +0.000 A 
ATOM     25  C   UNL     1      34.130  22.993  36.919  0.00  0.00    +0.000 A 
ATOM     26  N   UNL     1      33.967  24.319  36.812  0.00  0.00    +0.000 NA
ATOM     27  C   UNL     1      35.147  24.936  36.828  0.00  0.00    +0.000 A 
ENDBRANCH  19  23
BRANCH  19  28
ATOM     28  C   UNL     1      38.127  23.764  38.427  0.00  0.00    +0.000 C 
ATOM     29  F   UNL     1      37.516  22.702  39.065  0.00  0.00    +0.000 F 
ATOM     30  F   UNL     1      39.514  23.343  38.305  0.00  0.00    +0.000 F 
ATOM     31  F   UNL     1      38.139  24.899  39.142  0.00  0.00    +0.000 F 
ENDBRANCH  19  28
ENDBRANCH   5  17
TORSDOF 4
