
 OpenBabel03262518303D

 32 35  0  0  0  0  0  0  0  0999 V2000
   39.6730   22.6260   38.2400 N   0  0  0  0  0  0  0  0  0  0  0  0
   38.5890   23.3920   38.0830 N   0  0  0  0  0  0  0  0  0  0  0  0
   38.6410   24.0010   36.8690 C   0  0  0  0  0  0  0  0  0  0  0  0
   39.7920   23.6080   36.2420 C   0  0  0  0  0  0  0  0  0  0  0  0
   40.4100   22.7550   37.1190 C   0  0  0  0  0  0  0  0  0  0  0  0
   39.8800   22.0460   39.0890 H   0  0  0  0  0  0  0  0  0  0  0  0
   40.0780   23.9500   35.2560 H   0  0  0  0  0  0  0  0  0  0  0  0
   41.7010   22.0800   36.8550 C   0  0  0  0  0  0  0  0  0  0  0  0
   42.7100   22.7750   36.2240 C   0  0  0  0  0  0  0  0  0  0  0  0
   43.8700   22.0510   36.0280 C   0  0  0  0  0  0  0  0  0  0  0  0
   44.0760   20.7720   36.3950 N   0  0  0  0  0  0  0  0  0  0  0  0
   43.0510   20.1260   37.0160 C   0  0  0  0  0  0  0  0  0  0  0  0
   41.8920   20.7940   37.2300 N   0  0  0  0  0  0  0  0  0  0  0  0
   42.6150   23.7990   35.9030 H   0  0  0  0  0  0  0  0  0  0  0  0
   44.7350   22.4870   35.5420 H   0  0  0  0  0  0  0  0  0  0  0  0
   42.9750   19.1100   37.4000 H   0  0  0  0  0  0  0  0  0  0  0  0
   37.6040   24.8730   36.4580 O   0  0  0  0  0  0  0  0  0  0  0  0
   37.8870   26.0280   35.7400 C   0  0  0  0  0  0  0  0  0  0  0  0
   38.5320   26.9790   36.2580 O   0  0  0  0  0  0  0  0  0  0  0  0
   37.4270   26.1410   34.3520 C   0  0  0  0  0  0  0  0  0  0  0  0
   37.5850   25.0480   33.5300 C   0  0  0  0  0  0  0  0  0  0  0  0
   37.1490   25.1380   32.1960 C   0  0  0  0  0  0  0  0  0  0  0  0
   36.6020   26.3070   31.8230 N   0  0  0  0  0  0  0  0  0  0  0  0
   36.4600   27.3520   32.6430 C   0  0  0  0  0  0  0  0  0  0  0  0
   36.8680   27.2890   33.9210 N   0  0  0  0  0  0  0  0  0  0  0  0
   38.0280   24.1140   33.8470 H   0  0  0  0  0  0  0  0  0  0  0  0
   37.2470   24.3270   31.5180 H   0  0  0  0  0  0  0  0  0  0  0  0
   35.8600   28.5680   32.1540 N   0  0  0  0  0  0  0  0  0  0  0  0
   36.3980   29.3950   31.2370 C   0  0  0  0  0  0  0  0  0  0  0  0
   35.4940   30.4290   31.0660 C   0  0  0  0  0  0  0  0  0  0  0  0
   34.4230   30.2150   31.8800 N   0  0  0  0  0  0  0  0  0  0  0  0
   34.6690   29.0590   32.5440 C   0  0  0  0  0  0  0  0  0  0  0  0
  1  6  1  0  0  0  0
  2  1  1  0  0  0  0
  3  2  2  0  0  0  0
  4  3  1  0  0  0  0
  4  5  2  0  0  0  0
  5  1  1  0  0  0  0
  7  4  1  0  0  0  0
  8  5  1  0  0  0  0
  8 13  1  0  0  0  0
  9  8  2  0  0  0  0
 10  9  1  0  0  0  0
 10 11  2  0  0  0  0
 11 12  1  0  0  0  0
 12 13  2  0  0  0  0
 12 16  1  0  0  0  0
 14  9  1  0  0  0  0
 15 10  1  0  0  0  0
 17  3  1  0  0  0  0
 18 19  2  0  0  0  0
 18 17  1  0  0  0  0
 20 18  1  0  0  0  0
 21 26  1  0  0  0  0
 21 20  2  0  0  0  0
 22 21  1  0  0  0  0
 23 22  2  0  0  0  0
 23 24  1  0  0  0  0
 24 25  2  0  0  0  0
 25 20  1  0  0  0  0
 27 22  1  0  0  0  0
 28 32  1  0  0  0  0
 28 24  1  0  0  0  0
 29 28  1  0  0  0  0
 30 29  2  0  0  0  0
 30 31  1  0  0  0  0
 31 32  2  0  0  0  0
M  END
>  <minimizedAffinity>
-5.90628004

>  <minimizedRMSD>
0.770760953

$$$$
