
 OpenBabel03262518353D

 44 47  0  0  0  0  0  0  0  0999 V2000
   37.1220   26.9280   34.5020 C   0  0  0  0  0  0  0  0  0  0  0  0
   37.2070   26.1750   33.3300 C   0  0  0  0  0  0  0  0  0  0  0  0
   36.5490   26.6540   32.1740 C   0  0  0  0  0  0  0  0  0  0  0  0
   35.8840   27.8180   32.3030 N   0  0  0  0  0  0  0  0  0  0  0  0
   35.8150   28.5180   33.4250 C   0  0  0  0  0  0  0  0  0  0  0  0
   36.4290   28.1010   34.5630 N   0  0  0  0  0  0  0  0  0  0  0  0
   37.7450   25.2570   33.2700 H   0  0  0  0  0  0  0  0  0  0  0  0
   36.5860   26.1150   31.2560 H   0  0  0  0  0  0  0  0  0  0  0  0
   37.8050   26.4230   35.6910 C   0  0  0  0  0  0  0  0  0  0  0  0
   38.6870   27.1200   36.2310 O   0  0  0  0  0  0  0  0  0  0  0  0
   37.4600   25.1880   36.1930 O   0  0  0  0  0  0  0  0  0  0  0  0
   39.3520   22.9070   38.1160 N   0  0  0  0  0  0  0  0  0  0  0  0
   38.3080   23.7020   37.8860 N   0  0  0  0  0  0  0  0  0  0  0  0
   38.4470   24.2910   36.6690 C   0  0  0  0  0  0  0  0  0  0  0  0
   39.6120   23.8570   36.1100 C   0  0  0  0  0  0  0  0  0  0  0  0
   40.1480   23.0010   37.0310 C   0  0  0  0  0  0  0  0  0  0  0  0
   39.5920   22.3040   38.9230 H   0  0  0  0  0  0  0  0  0  0  0  0
   39.9620   24.1750   35.1380 H   0  0  0  0  0  0  0  0  0  0  0  0
   41.4390   22.2810   36.8420 C   0  0  0  0  0  0  0  0  0  0  0  0
   42.4850   22.9240   36.2030 C   0  0  0  0  0  0  0  0  0  0  0  0
   43.6350   22.1690   36.0800 C   0  0  0  0  0  0  0  0  0  0  0  0
   43.7940   20.8960   36.5260 N   0  0  0  0  0  0  0  0  0  0  0  0
   42.7360   20.3120   37.1470 C   0  0  0  0  0  0  0  0  0  0  0  0
   41.5910   21.0120   37.2900 N   0  0  0  0  0  0  0  0  0  0  0  0
   42.4210   23.9190   35.8300 H   0  0  0  0  0  0  0  0  0  0  0  0
   44.4920   22.6110   35.5880 H   0  0  0  0  0  0  0  0  0  0  0  0
   42.7570   19.3030   37.5400 H   0  0  0  0  0  0  0  0  0  0  0  0
   35.0470   29.7850   33.4290 C   0  0  0  0  0  0  0  0  0  0  0  0
   34.3370   29.8800   34.7790 C   0  0  0  0  0  0  0  0  0  0  0  0
   33.6890   28.9760   34.8420 H   0  0  0  0  0  0  0  0  0  0  0  0
   33.6590   30.7630   34.7950 H   0  0  0  0  0  0  0  0  0  0  0  0
   35.0460   29.8500   35.6120 H   0  0  0  0  0  0  0  0  0  0  0  0
   33.9730   29.6800   32.3560 C   0  0  0  0  0  0  0  0  0  0  0  0
   33.4710   28.7100   32.4150 H   0  0  0  0  0  0  0  0  0  0  0  0
   34.4820   29.8080   31.3780 H   0  0  0  0  0  0  0  0  0  0  0  0
   33.2590   30.5000   32.4470 H   0  0  0  0  0  0  0  0  0  0  0  0
   35.8980   30.9990   33.1940 C   0  0  0  0  0  0  0  0  0  0  0  0
   35.5180   31.8270   33.8030 H   0  0  0  0  0  0  0  0  0  0  0  0
   36.9190   30.7610   33.6150 H   0  0  0  0  0  0  0  0  0  0  0  0
   36.0620   31.4280   31.8370 C   0  0  0  0  0  0  0  0  0  0  0  0
   36.8420   30.8640   30.8400 C   0  0  0  0  0  0  0  0  0  0  0  0
   36.8830   31.4030   29.5930 C   0  0  0  0  0  0  0  0  0  0  0  0
   36.0320   32.6140   29.4290 C   0  0  0  0  0  0  0  0  0  0  0  0
   35.2270   32.8810   31.1200 S   0  0  0  0  0  0  0  0  0  0  0  0
  1  6  1  0  0  0  0
  1  9  1  0  0  0  0
  2  1  2  0  0  0  0
  3  4  2  0  0  0  0
  3  2  1  0  0  0  0
  4  5  1  0  0  0  0
  5 28  1  0  0  0  0
  5  6  2  0  0  0  0
  7  2  1  0  0  0  0
  8  3  1  0  0  0  0
  9 11  1  0  0  0  0
  9 10  2  0  0  0  0
 11 14  1  0  0  0  0
 12 17  1  0  0  0  0
 13 12  1  0  0  0  0
 14 13  2  0  0  0  0
 15 14  1  0  0  0  0
 15 16  2  0  0  0  0
 16 12  1  0  0  0  0
 18 15  1  0  0  0  0
 19 16  1  0  0  0  0
 19 24  1  0  0  0  0
 20 19  2  0  0  0  0
 21 20  1  0  0  0  0
 21 22  2  0  0  0  0
 22 23  1  0  0  0  0
 23 24  2  0  0  0  0
 23 27  1  0  0  0  0
 25 20  1  0  0  0  0
 26 21  1  0  0  0  0
 28 29  1  0  0  0  0
 29 31  1  0  0  0  0
 29 30  1  0  0  0  0
 29 32  1  0  0  0  0
 33 34  1  0  0  0  0
 33 36  1  0  0  0  0
 33 28  1  0  0  0  0
 35 33  1  0  0  0  0
 37 28  1  0  0  0  0
 37 39  1  0  0  0  0
 37 38  1  0  0  0  0
 40 37  1  0  0  0  0
 41 40  2  0  0  0  0
 42 41  1  0  0  0  0
 43 42  2  0  0  0  0
 43 44  1  0  0  0  0
 44 40  1  0  0  0  0
M  END
>  <minimizedAffinity>
-5.4750638

>  <minimizedRMSD>
1.31497681

$$$$
