
 OpenBabel03262519173D

 33 36  0  0  0  0  0  0  0  0999 V2000
   37.8190   25.1720   34.3040 C   0  0  0  0  0  0  0  0  0  0  0  0
   38.1260   26.5330   34.2600 C   0  0  0  0  0  0  0  0  0  0  0  0
   39.3790   26.9790   34.6850 C   0  0  0  0  0  0  0  0  0  0  0  0
   40.2270   26.0030   35.1250 N   0  0  0  0  0  0  0  0  0  0  0  0
   39.9050   24.6840   35.1590 C   0  0  0  0  0  0  0  0  0  0  0  0
   38.6940   24.2900   34.7440 N   0  0  0  0  0  0  0  0  0  0  0  0
   36.8130   24.9120   33.9510 H   0  0  0  0  0  0  0  0  0  0  0  0
   39.6970   28.0070   34.6850 H   0  0  0  0  0  0  0  0  0  0  0  0
   40.9250   23.7590   35.6650 C   0  0  0  0  0  0  0  0  0  0  0  0
   42.1750   23.9200   35.1720 C   0  0  0  0  0  0  0  0  0  0  0  0
   43.1680   22.5840   36.0330 S   0  0  0  0  0  0  0  0  0  0  0  0
   41.5710   22.0390   36.9560 C   0  0  0  0  0  0  0  0  0  0  0  0
   40.8690   22.7830   36.5170 N   0  0  0  0  0  0  0  0  0  0  0  0
   41.5250   20.9640   37.8900 N   0  0  0  0  0  0  0  0  0  0  0  0
   42.7710   24.5760   34.4400 H   0  0  0  0  0  0  0  0  0  0  0  0
   41.2570   21.1730   38.8820 H   0  0  0  0  0  0  0  0  0  0  0  0
   41.7690   20.0470   37.4900 H   0  0  0  0  0  0  0  0  0  0  0  0
   37.2260   27.5820   33.8000 C   0  0  0  0  0  0  0  0  0  0  0  0
   36.4570   28.3750   34.6490 C   0  0  0  0  0  0  0  0  0  0  0  0
   35.6750   29.3040   34.0470 C   0  0  0  0  0  0  0  0  0  0  0  0
   35.6870   29.4060   32.6710 C   0  0  0  0  0  0  0  0  0  0  0  0
   36.8990   28.0880   32.1480 S   0  0  0  0  0  0  0  0  0  0  0  0
   36.4700   28.2700   35.7250 H   0  0  0  0  0  0  0  0  0  0  0  0
   35.0450   30.2050   31.6920 C   0  0  0  0  0  0  0  0  0  0  0  0
   35.6750   30.7800   30.8110 O   0  0  0  0  0  0  0  0  0  0  0  0
   33.6020   30.3500   31.7290 N   0  0  0  0  0  0  0  0  0  0  0  0
   33.1420   31.1940   32.1840 H   0  0  0  0  0  0  0  0  0  0  0  0
   33.1740   29.5040   31.2460 H   0  0  0  0  0  0  0  0  0  0  0  0
   34.8000   30.2340   34.6820 N   0  0  0  0  0  0  0  0  0  0  0  0
   33.5830   29.7480   35.0480 C   0  0  0  0  0  0  0  0  0  0  0  0
   32.8880   30.7800   35.6370 C   0  0  0  0  0  0  0  0  0  0  0  0
   33.7080   31.8430   35.6030 N   0  0  0  0  0  0  0  0  0  0  0  0
   34.8730   31.5150   35.0220 C   0  0  0  0  0  0  0  0  0  0  0  0
  1  6  1  0  0  0  0
  2  1  2  0  0  0  0
  2  3  1  0  0  0  0
  3  4  2  0  0  0  0
  4  5  1  0  0  0  0
  5  9  1  0  0  0  0
  6  5  2  0  0  0  0
  7  1  1  0  0  0  0
  8  3  1  0  0  0  0
  9 13  1  0  0  0  0
 10  9  2  0  0  0  0
 10 11  1  0  0  0  0
 11 12  1  0  0  0  0
 12 14  1  0  0  0  0
 13 12  2  0  0  0  0
 14 16  1  0  0  0  0
 15 10  1  0  0  0  0
 17 14  1  0  0  0  0
 18  2  1  0  0  0  0
 18 19  2  0  0  0  0
 19 23  1  0  0  0  0
 20 19  1  0  0  0  0
 20 29  1  0  0  0  0
 21 20  2  0  0  0  0
 22 21  1  0  0  0  0
 22 18  1  0  0  0  0
 24 26  1  0  0  0  0
 24 21  1  0  0  0  0
 25 24  2  0  0  0  0
 26 27  1  0  0  0  0
 28 26  1  0  0  0  0
 29 33  1  0  0  0  0
 29 30  1  0  0  0  0
 30 31  2  0  0  0  0
 32 31  1  0  0  0  0
 33 32  2  0  0  0  0
M  END
>  <minimizedAffinity>
-5.04204178

>  <minimizedRMSD>
3.05206585

$$$$
