
 OpenBabel03262519593D

 31 34  0  0  1  0  0  0  0  0999 V2000
   38.6400   23.9450   34.2710 C   0  0  0  0  0  0  0  0  0  0  0  0
   37.9550   22.8000   34.6650 C   0  0  0  0  0  0  0  0  0  0  0  0
   38.6650   21.7860   34.0730 N   0  0  0  0  0  0  0  0  0  0  0  0
   39.6690   22.3350   33.3990 C   0  0  0  0  0  0  0  0  0  0  0  0
   39.6790   23.6580   33.5040 N   0  0  0  0  0  0  0  0  0  0  0  0
   37.0630   22.8100   35.3040 H   0  0  0  0  0  0  0  0  0  0  0  0
   40.3340   21.6480   32.8660 H   0  0  0  0  0  0  0  0  0  0  0  0
   38.2580   25.2970   34.6490 C   0  0  0  0  0  0  0  0  0  0  0  0
   37.3950   26.0390   33.8150 C   0  0  0  0  0  0  0  0  0  0  0  0
   37.0510   27.3450   34.2330 C   0  0  0  0  0  0  0  0  0  0  0  0
   37.5710   27.7960   35.4060 N   0  0  0  0  0  0  0  0  0  0  0  0
   38.3970   27.0450   36.1750 C   0  0  0  0  0  0  0  0  0  0  0  0
   38.7440   25.8010   35.8070 N   0  0  0  0  0  0  0  0  0  0  0  0
   37.0410   25.5850   32.9090 H   0  0  0  0  0  0  0  0  0  0  0  0
   36.3940   27.9200   33.6070 H   0  0  0  0  0  0  0  0  0  0  0  0
   38.7190   27.5520   37.0700 H   0  0  0  0  0  0  0  0  0  0  0  0
   40.6490   24.4760   32.8840 C   0  0  1  0  0  0  0  0  0  0  0  0
   41.3030   25.6240   33.4540 C   0  0  0  0  0  0  0  0  0  0  0  0
   42.0500   24.2610   33.3440 C   0  0  1  0  0  0  0  0  0  0  0  0
   40.5100   24.5210   31.7480 H   0  0  0  0  0  0  0  0  0  0  0  0
   41.7220   26.4330   32.8400 H   0  0  0  0  0  0  0  0  0  0  0  0
   41.0680   25.9250   34.4780 H   0  0  0  0  0  0  0  0  0  0  0  0
   42.5040   23.9370   34.7080 N   0  0  0  0  0  0  0  0  0  0  0  0
   43.3720   24.8480   35.2110 C   0  0  0  0  0  3  0  0  0  0  0  0
   43.6950   24.3930   36.4910 C   0  0  0  0  0  3  0  0  0  0  0  0
   43.0170   23.2550   36.6840 N   0  0  0  0  0  0  0  0  0  0  0  0
   42.2860   22.9600   35.6110 C   0  0  0  0  0  3  0  0  0  0  0  0
   43.1420   24.3270   32.2940 C   0  0  0  0  0  0  0  0  0  0  0  0
   44.0420   23.2970   32.4890 F   0  0  0  0  0  0  0  0  0  0  0  0
   42.5440   24.0240   31.0030 F   0  0  0  0  0  0  0  0  0  0  0  0
   43.7100   25.5360   32.1720 F   0  0  0  0  0  0  0  0  0  0  0  0
  1  8  1  0  0  0  0
  1  2  2  0  0  0  0
  2  6  1  0  0  0  0
  3  2  1  0  0  0  0
  4  5  1  0  0  0  0
  4  3  2  0  0  0  0
  5  1  1  0  0  0  0
  7  4  1  0  0  0  0
  8 13  1  0  0  0  0
  9 10  1  0  0  0  0
  9  8  2  0  0  0  0
 10 11  2  0  0  0  0
 11 12  1  0  0  0  0
 12 16  1  0  0  0  0
 13 12  2  0  0  0  0
 14  9  1  0  0  0  0
 15 10  1  0  0  0  0
 17 20  1  6  0  0  0
 17 19  1  0  0  0  0
 17 18  1  0  0  0  0
 17  5  1  0  0  0  0
 18 22  1  0  0  0  0
 19 28  1  6  0  0  0
 19 18  1  0  0  0  0
 19 23  1  0  0  0  0
 21 18  1  0  0  0  0
 23 24  1  0  0  0  0
 23 27  1  0  0  0  0
 24 25  2  0  0  0  0
 25 26  1  0  0  0  0
 27 26  2  0  0  0  0
 28 29  1  0  0  0  0
 30 28  1  0  0  0  0
 31 28  1  0  0  0  0
M  END
>  <minimizedAffinity>
-3.49255157

>  <minimizedRMSD>
5.78142977

$$$$
