
 OpenBabel03262518393D

 47 50  0  0  0  0  0  0  0  0999 V2000
   37.1580   26.6590   34.3270 C   0  0  0  0  0  0  0  0  0  0  0  0
   37.1750   25.7010   33.3130 C   0  0  0  0  0  0  0  0  0  0  0  0
   36.5420   25.9980   32.0910 C   0  0  0  0  0  0  0  0  0  0  0  0
   35.9520   27.2020   31.9800 N   0  0  0  0  0  0  0  0  0  0  0  0
   35.9400   28.1200   32.9630 C   0  0  0  0  0  0  0  0  0  0  0  0
   36.5460   27.8620   34.1610 N   0  0  0  0  0  0  0  0  0  0  0  0
   37.6590   24.7360   33.4300 H   0  0  0  0  0  0  0  0  0  0  0  0
   36.5170   25.3090   31.2720 H   0  0  0  0  0  0  0  0  0  0  0  0
   37.8180   26.3440   35.5930 C   0  0  0  0  0  0  0  0  0  0  0  0
   38.6730   27.1200   36.0400 O   0  0  0  0  0  0  0  0  0  0  0  0
   37.4750   25.1970   36.2600 O   0  0  0  0  0  0  0  0  0  0  0  0
   39.3780   22.8940   38.1510 N   0  0  0  0  0  0  0  0  0  0  0  0
   38.3360   23.6930   37.9410 N   0  0  0  0  0  0  0  0  0  0  0  0
   38.4580   24.2920   36.7290 C   0  0  0  0  0  0  0  0  0  0  0  0
   39.6220   23.8630   36.1420 C   0  0  0  0  0  0  0  0  0  0  0  0
   40.1600   22.9970   37.0590 C   0  0  0  0  0  0  0  0  0  0  0  0
   39.5390   22.3070   39.0120 H   0  0  0  0  0  0  0  0  0  0  0  0
   39.9620   24.1810   35.1780 H   0  0  0  0  0  0  0  0  0  0  0  0
   41.4440   22.2730   36.8570 C   0  0  0  0  0  0  0  0  0  0  0  0
   42.4890   22.9070   36.2120 C   0  0  0  0  0  0  0  0  0  0  0  0
   43.6250   22.1610   36.0740 C   0  0  0  0  0  0  0  0  0  0  0  0
   43.8050   20.8910   36.5050 N   0  0  0  0  0  0  0  0  0  0  0  0
   42.7410   20.3070   37.1380 C   0  0  0  0  0  0  0  0  0  0  0  0
   41.6030   21.0080   37.2940 N   0  0  0  0  0  0  0  0  0  0  0  0
   42.4210   23.9180   35.8400 H   0  0  0  0  0  0  0  0  0  0  0  0
   44.4840   22.6250   35.5670 H   0  0  0  0  0  0  0  0  0  0  0  0
   42.6920   19.2900   37.5570 H   0  0  0  0  0  0  0  0  0  0  0  0
   35.2640   29.4250   32.7500 C   0  0  0  0  0  0  0  0  0  0  0  0
   35.8640   30.4140   33.7110 C   0  0  0  0  0  0  0  0  0  0  0  0
   35.9830   29.9280   34.7010 H   0  0  0  0  0  0  0  0  0  0  0  0
   36.8970   30.6310   33.3310 H   0  0  0  0  0  0  0  0  0  0  0  0
   35.3480   31.3840   33.7480 H   0  0  0  0  0  0  0  0  0  0  0  0
   33.7970   29.2270   33.0740 C   0  0  0  0  0  0  0  0  0  0  0  0
   33.6700   28.6450   34.0040 H   0  0  0  0  0  0  0  0  0  0  0  0
   33.2670   28.7030   32.2500 H   0  0  0  0  0  0  0  0  0  0  0  0
   33.3750   30.2340   33.2350 H   0  0  0  0  0  0  0  0  0  0  0  0
   35.4160   29.8820   31.3130 C   0  0  0  0  0  0  0  0  0  0  0  0
   34.9600   30.9130   31.2640 H   0  0  0  0  0  0  0  0  0  0  0  0
   34.9950   29.1780   30.5970 H   0  0  0  0  0  0  0  0  0  0  0  0
   36.8040   30.0440   31.1050 O   0  0  0  0  0  0  0  0  0  0  0  0
   38.0720   28.0120   27.2360 H   0  0  0  0  0  0  0  0  0  0  0  0
   37.9030   28.6160   28.0750 N   0  0  0  0  0  0  0  0  0  0  0  0
   37.1670   28.6160   29.1730 N   0  0  0  0  0  0  0  0  0  0  0  0
   37.4060   29.7230   29.8910 C   0  0  0  0  0  0  0  0  0  0  0  0
   38.3580   30.5050   29.2310 C   0  0  0  0  0  0  0  0  0  0  0  0
   38.6380   29.7620   28.0900 C   0  0  0  0  0  0  0  0  0  0  0  0
   39.3790   30.1780   27.3890 H   0  0  0  0  0  0  0  0  0  0  0  0
  1  9  1  0  0  0  0
  2  7  1  0  0  0  0
  2  1  2  0  0  0  0
  3  2  1  0  0  0  0
  4  3  2  0  0  0  0
  4  5  1  0  0  0  0
  5  6  2  0  0  0  0
  6  1  1  0  0  0  0
  8  3  1  0  0  0  0
  9 10  2  0  0  0  0
  9 11  1  0  0  0  0
 11 14  1  0  0  0  0
 12 17  1  0  0  0  0
 13 12  1  0  0  0  0
 14 13  2  0  0  0  0
 15 14  1  0  0  0  0
 15 16  2  0  0  0  0
 16 12  1  0  0  0  0
 18 15  1  0  0  0  0
 19 16  1  0  0  0  0
 19 24  1  0  0  0  0
 20 19  2  0  0  0  0
 21 20  1  0  0  0  0
 21 22  2  0  0  0  0
 22 23  1  0  0  0  0
 23 24  2  0  0  0  0
 23 27  1  0  0  0  0
 25 20  1  0  0  0  0
 26 21  1  0  0  0  0
 28  5  1  0  0  0  0
 28 33  1  0  0  0  0
 28 29  1  0  0  0  0
 29 32  1  0  0  0  0
 29 30  1  0  0  0  0
 31 29  1  0  0  0  0
 33 36  1  0  0  0  0
 33 34  1  0  0  0  0
 35 33  1  0  0  0  0
 37 28  1  0  0  0  0
 38 37  1  0  0  0  0
 39 37  1  0  0  0  0
 40 37  1  0  0  0  0
 41 42  1  0  0  0  0
 42 46  1  0  0  0  0
 42 43  1  0  0  0  0
 43 44  2  0  0  0  0
 44 40  1  0  0  0  0
 45 44  1  0  0  0  0
 46 45  2  0  0  0  0
 47 46  1  0  0  0  0
M  END
>  <minimizedAffinity>
-5.85268164

>  <minimizedRMSD>
0.594554842

$$$$
