
 OpenBabel03262519243D

 41 46  0  0  0  0  0  0  0  0999 V2000
   39.1730   23.5810   32.4160 C   0  0  0  0  0  0  0  0  0  0  0  0
   39.9130   22.4410   32.7010 C   0  0  0  0  0  0  0  0  0  0  0  0
   39.3770   21.1580   32.5940 C   0  0  0  0  0  0  0  0  0  0  0  0
   38.0580   20.9960   32.1890 C   0  0  0  0  0  0  0  0  0  0  0  0
   37.2990   22.1140   31.9000 C   0  0  0  0  0  0  0  0  0  0  0  0
   36.0010   21.9600   31.5050 C   0  0  0  0  0  0  0  0  0  0  0  0
   35.1950   23.0310   31.2030 C   0  0  0  0  0  0  0  0  0  0  0  0
   35.7620   24.2980   31.3150 C   0  0  0  0  0  0  0  0  0  0  0  0
   37.0820   24.4160   31.7180 C   0  0  0  0  0  0  0  0  0  0  0  0
   37.8840   23.3600   32.0220 C   0  0  0  0  0  0  0  0  0  0  0  0
   40.9480   22.6120   33.0180 H   0  0  0  0  0  0  0  0  0  0  0  0
   39.9910   20.3000   32.8260 H   0  0  0  0  0  0  0  0  0  0  0  0
   37.6330   19.9930   32.1040 H   0  0  0  0  0  0  0  0  0  0  0  0
   35.6310   20.9570   31.4400 H   0  0  0  0  0  0  0  0  0  0  0  0
   34.1740   22.7780   30.9020 H   0  0  0  0  0  0  0  0  0  0  0  0
   35.0200   25.0450   31.0500 H   0  0  0  0  0  0  0  0  0  0  0  0
   39.7580   24.8860   32.5530 C   0  0  0  0  0  0  0  0  0  0  0  0
   39.7600   25.6020   33.7670 C   0  0  0  0  0  0  0  0  0  0  0  0
   40.3630   26.8660   33.7870 C   0  0  0  0  0  0  0  0  0  0  0  0
   40.9250   27.3510   32.6370 N   0  0  0  0  0  0  0  0  0  0  0  0
   40.9080   26.6330   31.4880 C   0  0  0  0  0  0  0  0  0  0  0  0
   40.3420   25.4490   31.4700 N   0  0  0  0  0  0  0  0  0  0  0  0
   40.3870   27.4570   34.7040 H   0  0  0  0  0  0  0  0  0  0  0  0
   41.3620   27.0480   30.5990 H   0  0  0  0  0  0  0  0  0  0  0  0
   39.1980   25.0460   34.9020 N   0  0  0  0  0  0  0  0  0  0  0  0
   37.9600   25.2550   35.3660 C   0  0  0  0  0  0  0  0  0  0  0  0
   37.7150   24.5620   36.4980 N   0  0  0  0  0  0  0  0  0  0  0  0
   38.8590   23.8750   36.7640 C   0  0  0  0  0  0  0  0  0  0  0  0
   39.2280   23.0050   37.7620 C   0  0  0  0  0  0  0  0  0  0  0  0
   40.4440   22.4250   37.8300 N   0  0  0  0  0  0  0  0  0  0  0  0
   41.3060   22.7520   36.8370 C   0  0  0  0  0  0  0  0  0  0  0  0
   40.9290   23.5960   35.8800 N   0  0  0  0  0  0  0  0  0  0  0  0
   39.7510   24.1900   35.7700 C   0  0  0  0  0  0  0  0  0  0  0  0
   37.1010   25.8370   35.0680 H   0  0  0  0  0  0  0  0  0  0  0  0
   38.4670   22.7950   38.5290 H   0  0  0  0  0  0  0  0  0  0  0  0
   42.3230   22.3710   36.7460 H   0  0  0  0  0  0  0  0  0  0  0  0
   37.3270   25.8100   31.6520 N   0  0  0  0  0  0  0  0  0  0  0  0
   37.9190   26.7940   30.9660 C   0  0  0  0  0  0  0  0  0  0  0  0
   37.8140   28.0440   31.5180 C   0  0  0  0  0  0  0  0  0  0  0  0
   37.0950   27.9160   32.6750 N   0  0  0  0  0  0  0  0  0  0  0  0
   36.8230   26.5680   32.7220 C   0  0  0  0  0  0  0  0  0  0  0  0
  1 17  1  0  0  0  0
  1  2  1  0  0  0  0
  2 11  1  0  0  0  0
  3  2  2  0  0  0  0
  3 12  1  0  0  0  0
  4  3  1  0  0  0  0
  5 10  1  0  0  0  0
  5  4  2  0  0  0  0
  6  5  1  0  0  0  0
  7  8  1  0  0  0  0
  7  6  2  0  0  0  0
  8  9  2  0  0  0  0
  9 10  1  0  0  0  0
 10  1  2  0  0  0  0
 13  4  1  0  0  0  0
 14  6  1  0  0  0  0
 15  7  1  0  0  0  0
 16  8  1  0  0  0  0
 17 18  1  0  0  0  0
 18 19  2  0  0  0  0
 18 25  1  0  0  0  0
 19 23  1  0  0  0  0
 20 19  1  0  0  0  0
 21 20  2  0  0  0  0
 22 21  1  0  0  0  0
 22 17  2  0  0  0  0
 24 21  1  0  0  0  0
 25 26  1  0  0  0  0
 25 33  1  0  0  0  0
 26 27  2  0  0  0  0
 27 28  1  0  0  0  0
 28 29  1  0  0  0  0
 29 30  2  0  0  0  0
 29 35  1  0  0  0  0
 31 30  1  0  0  0  0
 32 31  2  0  0  0  0
 33 32  1  0  0  0  0
 33 28  2  0  0  0  0
 34 26  1  0  0  0  0
 36 31  1  0  0  0  0
 37  9  1  0  0  0  0
 37 41  1  0  0  0  0
 38 39  2  0  0  0  0
 38 37  1  0  0  0  0
 39 40  1  0  0  0  0
 40 41  2  0  0  0  0
M  END
>  <minimizedAffinity>
-5.97280979

>  <minimizedRMSD>
1.25612235

$$$$
