
 OpenBabel03262515523D

 39 41  0  0  1  0  0  0  0  0999 V2000
   41.0520   24.3180   34.3970 N   0  0  0  0  0  0  0  0  0  0  0  0
   41.7800   25.5950   34.3720 C   0  0  1  0  0  0  0  0  0  0  0  0
   40.8160   26.7200   34.2840 C   0  0  0  0  0  0  0  0  0  0  0  0
   39.5220   26.2670   34.1650 O   0  0  0  0  0  0  0  0  0  0  0  0
   39.5080   25.5230   32.9820 C   0  0  0  0  0  0  0  0  0  0  0  0
   40.2050   24.2220   33.2480 C   0  0  0  0  0  0  0  0  0  0  0  0
   40.5970   22.0410   37.3090 C   0  0  0  0  0  0  0  0  0  0  0  0
   40.2940   23.0580   36.3700 C   0  0  0  0  0  0  0  0  0  0  0  0
   41.1960   23.3570   35.3800 C   0  0  0  0  0  0  0  0  0  0  0  0
   42.3450   22.6530   35.3510 N   0  0  0  0  0  0  0  0  0  0  0  0
   42.6580   21.6990   36.2110 C   0  0  0  0  0  0  0  0  0  0  0  0
   41.7750   21.3770   37.2130 N   0  0  0  0  0  0  0  0  0  0  0  0
   42.4700   25.5130   33.5000 H   0  0  0  0  0  0  0  0  0  0  0  0
   41.0570   27.3120   33.3770 H   0  0  0  0  0  0  0  0  0  0  0  0
   40.8780   27.4310   35.1330 H   0  0  0  0  0  0  0  0  0  0  0  0
   39.9990   26.1100   32.1630 H   0  0  0  0  0  0  0  0  0  0  0  0
   38.4640   25.3220   32.6940 H   0  0  0  0  0  0  0  0  0  0  0  0
   40.9640   24.1400   32.3820 H   0  0  0  0  0  0  0  0  0  0  0  0
   39.6160   23.3230   33.1350 H   0  0  0  0  0  0  0  0  0  0  0  0
   39.9130   21.7880   38.0990 H   0  0  0  0  0  0  0  0  0  0  0  0
   42.5660   25.6730   35.5560 N   0  0  0  0  0  0  0  0  0  0  0  0
   43.8990   25.3240   35.6640 C   0  0  0  0  0  0  0  0  0  0  0  0
   44.3560   25.3950   34.5040 N   0  0  0  0  0  0  0  0  0  0  0  0
   44.8180   24.9770   36.4020 O   0  0  0  0  0  0  0  0  0  0  0  0
   41.9990   26.0390   36.3390 H   0  0  0  0  0  0  0  0  0  0  0  0
   44.3520   24.6820   33.7130 H   0  0  0  0  0  0  0  0  0  0  0  0
   44.8680   26.1350   33.9500 H   0  0  0  0  0  0  0  0  0  0  0  0
   43.9880   21.0010   36.0460 C   0  0  0  0  0  0  0  0  0  0  0  0
   45.0250   21.8650   36.2240 F   0  0  0  0  0  0  0  0  0  0  0  0
   43.9660   20.0100   37.0340 F   0  0  0  0  0  0  0  0  0  0  0  0
   44.0950   20.3800   34.8390 F   0  0  0  0  0  0  0  0  0  0  0  0
   39.0390   23.8020   36.4210 C   0  0  0  0  0  0  0  0  0  0  0  0
   38.9230   24.5900   35.6820 H   0  0  0  0  0  0  0  0  0  0  0  0
   38.9240   24.3210   37.4220 H   0  0  0  0  0  0  0  0  0  0  0  0
   37.8820   22.8710   36.3720 C   0  0  0  0  0  0  0  0  0  0  0  0
   37.7580   22.2870   35.0850 C   0  0  0  0  0  0  0  0  0  0  0  0
   36.8070   21.3770   34.7690 C   0  0  0  0  0  0  0  0  0  0  0  0
   35.9020   20.9920   35.7590 C   0  0  0  0  0  0  0  0  0  0  0  0
   36.4530   22.0020   37.2350 S   0  0  0  0  0  0  0  0  0  0  0  0
  1  9  1  0  0  0  0
  2 13  1  6  0  0  0
  2  1  1  0  0  0  0
  2 21  1  0  0  0  0
  3  2  1  0  0  0  0
  3 15  1  0  0  0  0
  4  3  1  0  0  0  0
  5  6  1  0  0  0  0
  5  4  1  0  0  0  0
  6  1  1  0  0  0  0
  7 20  1  0  0  0  0
  8 32  1  0  0  0  0
  8  7  2  0  0  0  0
  9  8  1  0  0  0  0
 10  9  2  0  0  0  0
 10 11  1  0  0  0  0
 11 12  2  0  0  0  0
 12  7  1  0  0  0  0
 14  3  1  0  0  0  0
 16  5  1  0  0  0  0
 17  5  1  0  0  0  0
 18  6  1  0  0  0  0
 19  6  1  0  0  0  0
 21 22  1  0  0  0  0
 21 25  1  0  0  0  0
 22 24  2  0  0  0  0
 23 22  1  0  0  0  0
 26 23  1  0  0  0  0
 27 23  1  0  0  0  0
 28 11  1  0  0  0  0
 28 29  1  0  0  0  0
 28 30  1  0  0  0  0
 31 28  1  0  0  0  0
 32 34  1  0  0  0  0
 33 32  1  0  0  0  0
 35 32  1  0  0  0  0
 35 39  1  0  0  0  0
 36 35  2  0  0  0  0
 37 36  1  0  0  0  0
 37 38  2  0  0  0  0
 38 39  1  0  0  0  0
M  END
>  <minimizedAffinity>
-4.16133738

>  <minimizedRMSD>
1.95287824

$$$$
