
 OpenBabel03262518523D

 24 26  0  0  0  0  0  0  0  0999 V2000
   39.8520   22.7350   37.5100 C   0  0  0  0  0  0  0  0  0  0  0  0
   39.2010   23.5250   38.4830 C   0  0  0  0  0  0  0  0  0  0  0  0
   37.8030   23.6800   38.3420 C   0  0  0  0  0  0  0  0  0  0  0  0
   37.1750   23.0750   37.3020 N   0  0  0  0  0  0  0  0  0  0  0  0
   37.8540   22.3210   36.3850 C   0  0  0  0  0  0  0  0  0  0  0  0
   39.1830   22.1530   36.4900 N   0  0  0  0  0  0  0  0  0  0  0  0
   37.1960   21.6910   35.3000 N   0  0  0  0  0  0  0  0  0  0  0  0
   37.8340   21.7640   34.0900 C   0  0  0  0  0  0  0  0  0  0  0  0
   37.2240   21.1600   33.0060 C   0  0  0  0  0  0  0  0  0  0  0  0
   35.9980   20.5120   33.1980 C   0  0  0  0  0  0  0  0  0  0  0  0
   35.4290   19.9570   32.2190 O   0  0  0  0  0  0  0  0  0  0  0  0
   35.4250   20.4770   34.4130 N   0  0  0  0  0  0  0  0  0  0  0  0
   36.0190   21.0680   35.4810 C   0  0  0  0  0  0  0  0  0  0  0  0
   35.5540   21.0770   36.6300 O   0  0  0  0  0  0  0  0  0  0  0  0
   40.9170   22.6480   37.6620 H   0  0  0  0  0  0  0  0  0  0  0  0
   39.7530   23.9840   39.2940 H   0  0  0  0  0  0  0  0  0  0  0  0
   37.2600   24.2700   39.0550 H   0  0  0  0  0  0  0  0  0  0  0  0
   38.7680   22.2570   33.9410 H   0  0  0  0  0  0  0  0  0  0  0  0
   34.5130   19.9950   34.5550 H   0  0  0  0  0  0  0  0  0  0  0  0
   37.7590   21.1510   31.6920 N   0  0  0  0  0  0  0  0  0  0  0  0
   37.8690   22.3260   31.0480 C   0  0  0  0  0  0  0  0  0  0  0  0
   38.4160   22.0370   29.7930 C   0  0  0  0  0  0  0  0  0  0  0  0
   38.6180   20.6940   29.7220 N   0  0  0  0  0  0  0  0  0  0  0  0
   38.2060   20.1780   30.9010 C   0  0  0  0  0  0  0  0  0  0  0  0
  1 15  1  0  0  0  0
  1  2  1  0  0  0  0
  2 16  1  0  0  0  0
  3  2  2  0  0  0  0
  3 17  1  0  0  0  0
  4  3  1  0  0  0  0
  5  6  1  0  0  0  0
  5  4  2  0  0  0  0
  6  1  2  0  0  0  0
  7 13  1  0  0  0  0
  7  5  1  0  0  0  0
  8  7  1  0  0  0  0
  9 10  1  0  0  0  0
  9  8  2  0  0  0  0
 10 12  1  0  0  0  0
 11 10  2  0  0  0  0
 12 19  1  0  0  0  0
 12 13  1  0  0  0  0
 13 14  2  0  0  0  0
 18  8  1  0  0  0  0
 20  9  1  0  0  0  0
 21 20  1  0  0  0  0
 22 21  2  0  0  0  0
 23 22  1  0  0  0  0
 23 24  2  0  0  0  0
 24 20  1  0  0  0  0
M  END
>  <minimizedAffinity>
-4.80109787

>  <minimizedRMSD>
0.312494248

$$$$
