
 OpenBabel03262516233D

 45 49  0  0  0  0  0  0  0  0999 V2000
   44.8550   24.8640   37.1970 N   0  0  0  0  0  0  0  0  0  0  0  0
   44.3350   25.6150   38.1590 N   0  0  0  0  0  0  0  0  0  0  0  0
   45.2030   25.9590   39.0810 C   0  0  0  0  0  0  0  0  0  0  0  0
   46.4210   25.4090   38.7420 C   0  0  0  0  0  0  0  0  0  0  0  0
   46.1580   24.7160   37.5320 C   0  0  0  0  0  0  0  0  0  0  0  0
   44.9790   26.5720   39.9500 H   0  0  0  0  0  0  0  0  0  0  0  0
   47.3390   25.4900   39.2700 H   0  0  0  0  0  0  0  0  0  0  0  0
   47.1970   23.9560   36.7830 C   0  0  0  0  0  0  0  0  0  0  0  0
   48.1760   24.6460   36.0240 C   0  0  0  0  0  0  0  0  0  0  0  0
   49.1660   23.2670   35.3360 S   0  0  0  0  0  0  0  0  0  0  0  0
   48.0790   21.9780   36.1960 C   0  0  0  0  0  0  0  0  0  0  0  0
   47.3510   22.6510   36.7160 N   0  0  0  0  0  0  0  0  0  0  0  0
   48.3830   26.0250   35.8180 N   0  0  0  0  0  0  0  0  0  0  0  0
   49.3450   26.6610   36.5430 C   0  0  0  0  0  0  0  0  0  0  0  0
   49.5830   28.0130   36.3750 C   0  0  0  0  0  0  0  0  0  0  0  0
   50.6470   28.7130   37.1780 C   0  0  0  0  0  0  0  0  0  0  0  0
   48.8430   28.7140   35.4680 C   0  0  0  0  0  0  0  0  0  0  0  0
   49.0460   29.9580   35.2980 O   0  0  0  0  0  0  0  0  0  0  0  0
   47.8780   28.0790   34.7400 N   0  0  0  0  0  0  0  0  0  0  0  0
   47.6570   26.7460   34.9190 C   0  0  0  0  0  0  0  0  0  0  0  0
   46.7740   26.1190   34.2660 O   0  0  0  0  0  0  0  0  0  0  0  0
   47.2950   28.6150   34.0310 H   0  0  0  0  0  0  0  0  0  0  0  0
   48.3270   20.5270   36.0640 C   0  0  0  0  0  0  0  0  0  0  0  0
   48.2090   20.0940   34.7670 F   0  0  0  0  0  0  0  0  0  0  0  0
   47.3490   19.9250   36.8500 F   0  0  0  0  0  0  0  0  0  0  0  0
   49.5530   20.1640   36.6260 F   0  0  0  0  0  0  0  0  0  0  0  0
   44.2360   24.2940   36.0270 C   0  0  0  0  0  0  0  0  0  0  0  0
   45.0210   23.9260   35.3350 H   0  0  0  0  0  0  0  0  0  0  0  0
   43.6250   25.0690   35.5190 H   0  0  0  0  0  0  0  0  0  0  0  0
   41.0650   22.4700   37.0030 C   0  0  0  0  0  0  0  0  0  0  0  0
   41.9600   23.4710   36.6670 C   0  0  0  0  0  0  0  0  0  0  0  0
   43.2900   23.1910   36.3870 C   0  0  0  0  0  0  0  0  0  0  0  0
   43.6520   21.8680   36.4660 N   0  0  0  0  0  0  0  0  0  0  0  0
   42.7760   20.8970   36.7940 C   0  0  0  0  0  0  0  0  0  0  0  0
   41.5010   21.2350   37.0540 N   0  0  0  0  0  0  0  0  0  0  0  0
   41.6090   24.4940   36.6240 H   0  0  0  0  0  0  0  0  0  0  0  0
   43.1370   19.8770   36.8360 H   0  0  0  0  0  0  0  0  0  0  0  0
   39.6720   22.8450   37.2870 C   0  0  0  0  0  0  0  0  0  0  0  0
   38.6590   22.8380   36.3300 C   0  0  0  0  0  0  0  0  0  0  0  0
   37.5590   23.2530   37.0560 C   0  0  0  0  0  0  0  0  0  0  0  0
   37.9270   23.4880   38.3690 C   0  0  0  0  0  0  0  0  0  0  0  0
   39.2150   23.2220   38.4400 O   0  0  0  0  0  0  0  0  0  0  0  0
   38.6860   22.5790   35.2730 H   0  0  0  0  0  0  0  0  0  0  0  0
   36.5390   23.3960   36.7130 H   0  0  0  0  0  0  0  0  0  0  0  0
   37.3030   23.8210   39.1890 H   0  0  0  0  0  0  0  0  0  0  0  0
  1  5  1  0  0  0  0
  1  2  1  0  0  0  0
  2  3  2  0  0  0  0
  3  6  1  0  0  0  0
  4  3  1  0  0  0  0
  4  7  1  0  0  0  0
  5  4  2  0  0  0  0
  8  5  1  0  0  0  0
  9  8  2  0  0  0  0
 10  9  1  0  0  0  0
 10 11  1  0  0  0  0
 11 12  2  0  0  0  0
 12  8  1  0  0  0  0
 13  9  1  0  0  0  0
 13 14  1  0  0  0  0
 15 14  2  0  0  0  0
 15 16  1  0  0  0  0
 17 15  1  0  0  0  0
 18 17  2  0  0  0  0
 19 20  1  0  0  0  0
 19 17  1  0  0  0  0
 20 13  1  0  0  0  0
 21 20  2  0  0  0  0
 22 19  1  0  0  0  0
 23 11  1  0  0  0  0
 23 26  1  0  0  0  0
 23 25  1  0  0  0  0
 24 23  1  0  0  0  0
 27 32  1  0  0  0  0
 27  1  1  0  0  0  0
 28 27  1  0  0  0  0
 29 27  1  0  0  0  0
 30 35  1  0  0  0  0
 30 38  1  0  0  0  0
 31 30  2  0  0  0  0
 32 33  2  0  0  0  0
 32 31  1  0  0  0  0
 33 34  1  0  0  0  0
 34 37  1  0  0  0  0
 34 35  2  0  0  0  0
 36 31  1  0  0  0  0
 38 42  1  0  0  0  0
 39 40  1  0  0  0  0
 39 38  2  0  0  0  0
 40 41  2  0  0  0  0
 41 42  1  0  0  0  0
 41 45  1  0  0  0  0
 43 39  1  0  0  0  0
 44 40  1  0  0  0  0
M  END
>  <minimizedAffinity>
-5.74636745

>  <minimizedRMSD>
0.522224128

$$$$
