REMARK  Name = 
REMARK  4 active torsions:
REMARK  status: ('A' for Active; 'I' for Inactive)
REMARK    1  A    between atoms: C_3  and  C_7
REMARK    2  A    between atoms: C_7  and  C_8
REMARK    3  A    between atoms: C_7  and  C_9
REMARK    4  A    between atoms: C_9  and  C_19
REMARK                            x       y       z     vdW  Elec       q    Type
REMARK                         _______ _______ _______ _____ _____    ______ ____
ROOT
ATOM      1  C   UNL     1      38.052  24.211  37.060  0.00  0.00    +0.000 C 
ATOM      2  H   UNL     1      37.134  23.666  36.688  0.00  0.00    +0.000 HD
ENDROOT
BRANCH   1   5
ATOM      3  C   UNL     1      41.049  21.909  37.444  0.00  0.00    +0.000 A 
ATOM      4  C   UNL     1      39.963  22.749  37.770  0.00  0.00    +0.000 A 
ATOM      5  C   UNL     1      39.178  23.318  36.731  0.00  0.00    +0.000 A 
ATOM      6  N   UNL     1      39.541  23.001  35.464  0.00  0.00    +0.000 NA
ATOM      7  C   UNL     1      40.569  22.207  35.162  0.00  0.00    +0.000 A 
ATOM      8  N   UNL     1      41.327  21.658  36.158  0.00  0.00    +0.000 NA
ATOM      9  H   UNL     1      41.619  21.499  38.276  0.00  0.00    +0.000 HD
ATOM     10  H   UNL     1      39.745  22.948  38.816  0.00  0.00    +0.000 HD
ATOM     11  H   UNL     1      40.810  21.991  34.112  0.00  0.00    +0.000 HD
ENDBRANCH   1   5
BRANCH   1  12
ATOM     12  C   UNL     1      37.876  24.397  38.553  0.00  0.00    +0.000 C 
ATOM     13  H   UNL     1      38.843  24.770  38.988  0.00  0.00    +0.000 HD
ATOM     14  H   UNL     1      37.504  23.499  39.072  0.00  0.00    +0.000 HD
ATOM     15  H   UNL     1      37.156  25.242  38.672  0.00  0.00    +0.000 HD
ENDBRANCH   1  12
BRANCH   1  16
ATOM     16  C   UNL     1      38.145  25.543  36.393  0.00  0.00    +0.000 C 
ATOM     17  H   UNL     1      39.157  25.950  36.669  0.00  0.00    +0.000 HD
ATOM     18  H   UNL     1      37.349  26.233  36.766  0.00  0.00    +0.000 HD
BRANCH  16  19
ATOM     19  C   UNL     1      38.119  25.413  34.932  0.00  0.00    +0.000 A 
ATOM     20  C   UNL     1      38.351  24.053  34.664  0.00  0.00    +0.000 A 
ATOM     21  C   UNL     1      38.405  23.509  33.374  0.00  0.00    +0.000 A 
ATOM     22  N   UNL     1      38.225  24.326  32.319  0.00  0.00    +0.000 NA
ATOM     23  C   UNL     1      38.002  25.640  32.592  0.00  0.00    +0.000 A 
ATOM     24  H   UNL     1      37.842  26.408  31.847  0.00  0.00    +0.000 HD
ATOM     25  N   UNL     1      37.958  26.116  33.818  0.00  0.00    +0.000 NA
ENDBRANCH  16  19
ENDBRANCH   1  16
TORSDOF 4
