REMARK  Name = 
REMARK  3 active torsions:
REMARK  status: ('A' for Active; 'I' for Inactive)
REMARK    1  A    between atoms: O_1  and  C_2
REMARK    2  A    between atoms: O_1  and  C_11
REMARK    3  A    between atoms: C_27  and  C_28
REMARK                            x       y       z     vdW  Elec       q    Type
REMARK                         _______ _______ _______ _____ _____    ______ ____
ROOT
ATOM      1  C   UNL     1      39.594  22.683  37.411  0.00  0.00    +0.000 A 
ATOM      2  C   UNL     1      39.100  23.372  38.528  0.00  0.00    +0.000 A 
ATOM      3  C   UNL     1      37.956  24.168  38.336  0.00  0.00    +0.000 A 
ATOM      4  N   UNL     1      37.401  24.224  37.098  0.00  0.00    +0.000 NA
ATOM      5  C   UNL     1      37.922  23.536  36.054  0.00  0.00    +0.000 A 
ATOM      6  N   UNL     1      39.004  22.771  36.194  0.00  0.00    +0.000 NA
ATOM      7  H   UNL     1      39.587  23.288  39.495  0.00  0.00    +0.000 HD
ATOM      8  H   UNL     1      37.538  24.717  39.164  0.00  0.00    +0.000 HD
ATOM      9  N   UNL     1      37.201  23.724  34.844  0.00  0.00    +0.000 N 
ATOM     10  C   UNL     1      36.956  22.773  33.954  0.00  0.00    +0.000 A 
ATOM     11  C   UNL     1      36.254  23.030  32.812  0.00  0.00    +0.000 A 
ATOM     12  C   UNL     1      35.941  22.019  31.770  0.00  0.00    +0.000 C 
ATOM     13  C   UNL     1      35.774  24.294  32.548  0.00  0.00    +0.000 A 
ATOM     14  O   UNL     1      35.111  24.607  31.502  0.00  0.00    +0.000 OA
ATOM     15  N   UNL     1      36.006  25.279  33.431  0.00  0.00    +0.000 N 
ATOM     16  C   UNL     1      36.712  24.954  34.547  0.00  0.00    +0.000 A 
ATOM     17  O   UNL     1      36.912  25.895  35.354  0.00  0.00    +0.000 OA
ATOM     18  H   UNL     1      35.669  26.237  33.279  0.00  0.00    +0.000 HD
ENDROOT
BRANCH   1  19
ATOM     19  O   UNL     1      40.700  21.918  37.608  0.00  0.00    +0.000 OA
BRANCH  19  20
ATOM     20  C   UNL     1      41.924  22.070  36.994  0.00  0.00    +0.000 A 
ATOM     21  C   UNL     1      42.417  23.221  36.426  0.00  0.00    +0.000 A 
ATOM     22  N   UNL     1      43.640  23.015  35.918  0.00  0.00    +0.000 N 
ATOM     23  C   UNL     1      44.007  21.734  36.125  0.00  0.00    +0.000 A 
ATOM     24  C   UNL     1      45.142  21.002  35.813  0.00  0.00    +0.000 A 
ATOM     25  C   UNL     1      45.221  19.656  36.172  0.00  0.00    +0.000 A 
ATOM     26  C   UNL     1      44.153  19.054  36.846  0.00  0.00    +0.000 A 
ATOM     27  C   UNL     1      43.018  19.800  37.154  0.00  0.00    +0.000 A 
ATOM     28  C   UNL     1      42.947  21.136  36.794  0.00  0.00    +0.000 A 
ATOM     29  H   UNL     1      41.909  24.164  36.385  0.00  0.00    +0.000 HD
ATOM     30  H   UNL     1      44.248  23.697  35.435  0.00  0.00    +0.000 HD
ATOM     31  H   UNL     1      45.972  21.459  35.292  0.00  0.00    +0.000 HD
ATOM     32  H   UNL     1      46.082  19.039  35.953  0.00  0.00    +0.000 HD
ATOM     33  H   UNL     1      44.241  18.012  37.111  0.00  0.00    +0.000 HD
ATOM     34  H   UNL     1      42.204  19.314  37.675  0.00  0.00    +0.000 HD
ENDBRANCH  19  20
ENDBRANCH   1  19
TORSDOF 2
