
     RDKit          3D

 39 41  0  0  0  0  0  0  0  0999 V2000
   43.1169   23.3313   36.5405 C   0  0  0  0  0  0  0  0  0  0  0  0
   41.7252   23.1039   36.3969 C   0  0  0  0  0  0  0  0  0  0  0  0
   41.1734   24.0407   35.6245 C   0  0  0  0  0  0  0  0  0  0  0  0
   41.9029   25.0832   35.0572 N   0  0  0  0  0  0  0  0  0  0  0  0
   43.2013   25.2316   35.2353 C   0  0  0  0  0  0  0  0  0  0  0  0
   43.8204   24.3483   35.9845 N   0  0  0  0  0  0  0  0  0  0  0  0
   41.2383   21.9605   37.0782 C   0  0  0  0  0  0  0  0  0  0  0  0
   40.4798   22.3074   38.2263 F   0  0  0  0  0  0  0  0  0  0  0  0
   42.0361   21.1841   37.8332 F   0  0  0  0  0  0  0  0  0  0  0  0
   40.1417   21.2870   36.5518 F   0  0  0  0  0  0  0  0  0  0  0  0
   39.7900   23.9076   35.3696 C   0  0  0  0  0  0  0  0  0  0  0  0
   39.0144   25.0893   35.6833 C   0  0  0  0  0  0  0  0  0  0  0  0
   37.7736   24.6558   36.4719 C   0  0  2  0  0  0  0  0  0  0  0  0
   38.0326   24.3808   37.9294 C   0  0  0  0  0  0  0  0  0  0  0  0
   37.5602   23.3484   36.9902 C   0  0  1  0  0  0  0  0  0  0  0  0
   43.7721   22.6723   37.1419 H   0  0  0  0  0  0  0  0  0  0  0  0
   43.6733   26.0495   34.7681 H   0  0  0  0  0  0  0  0  0  0  0  0
   39.2380   23.0205   35.4956 H   0  0  0  0  0  0  0  0  0  0  0  0
   39.7906   23.9284   34.2115 H   0  0  0  0  0  0  0  0  0  0  0  0
   39.5999   25.7251   36.4141 H   0  0  0  0  0  0  0  0  0  0  0  0
   38.7726   25.8033   34.8665 H   0  0  0  0  0  0  0  0  0  0  0  0
   36.9668   25.4080   36.3103 H   0  0  0  0  0  0  0  0  0  0  0  0
   37.3370   24.8591   38.6912 H   0  0  0  0  0  0  0  0  0  0  0  0
   39.0563   24.5479   38.2750 H   0  0  0  0  0  0  0  0  0  0  0  0
   37.8616   22.3742   36.8386 H   0  0  0  0  0  0  0  0  0  0  0  0
   36.0863   23.1279   37.1786 N   0  0  0  0  0  0  0  0  0  0  0  0
   35.2891   24.1789   37.0901 C   0  0  0  0  0  0  0  0  0  0  0  0
   33.9312   23.9508   37.2677 C   0  0  0  0  0  0  0  0  0  0  0  0
   32.9512   25.0525   37.1899 C   0  0  0  0  0  0  0  0  0  0  0  0
   33.4922   22.6551   37.5240 C   0  0  0  0  0  0  0  0  0  0  0  0
   32.2623   22.4571   37.6836 O   0  0  0  0  0  0  0  0  0  0  0  0
   34.3392   21.6107   37.6064 N   0  0  0  0  0  0  0  0  0  0  0  0
   35.6478   21.8760   37.4278 C   0  0  0  0  0  0  0  0  0  0  0  0
   36.4172   20.8857   37.5092 O   0  0  0  0  0  0  0  0  0  0  0  0
   35.5948   25.1777   36.8959 H   0  0  0  0  0  0  0  0  0  0  0  0
   32.9388   25.4518   36.1691 H   0  0  0  0  0  0  0  0  0  0  0  0
   31.9650   24.7014   37.5128 H   0  0  0  0  0  0  0  0  0  0  0  0
   33.2768   25.8154   37.9399 H   0  0  0  0  0  0  0  0  0  0  0  0
   33.9662   20.6578   37.8001 H   0  0  0  0  0  0  0  0  0  0  0  0
  2  1  2  0
  2  7  1  0
  3  2  1  0
  4  5  1  0
  4  3  2  0
  5  6  2  0
  6  1  1  0
  7  9  1  0
  7  8  1  0
 10  7  1  0
 11  3  1  0
 11 12  1  0
 12 13  1  0
 13 15  1  0
 13 14  1  0
 15 14  1  0
  1 16  1  0
  5 17  1  0
 11 18  1  0
 11 19  1  0
 12 20  1  0
 12 21  1  0
 13 22  1  1
 14 23  1  0
 14 24  1  0
 15 25  1  6
 26 27  1  0
 27 28  2  0
 28 29  1  0
 28 30  1  0
 30 31  2  0
 30 32  1  0
 32 33  1  0
 33 34  2  0
 33 26  1  0
 27 35  1  0
 29 36  1  0
 29 37  1  0
 29 38  1  0
 32 39  1  0
 15 26  1  0
M  ISO  8  16  14  17  14  18   8  19   8  20   8  21   8  22  13  23  13
M  ISO  2  24  13  25  13
M  END
>  <DihAtoms>  (1) 
12,14,25,26

>  <DihDeg>  (1) 
-131.95608630630522

$$$$
