
 OpenBabel03262519523D

 35 37  0  0  1  0  0  0  0  0999 V2000
   42.0440   21.1160   32.5550 C   0  0  0  0  0  0  0  0  0  0  0  0
   42.5490   22.1260   32.4720 H   0  0  0  0  0  0  0  0  0  0  0  0
   41.8230   20.8590   31.4970 H   0  0  0  0  0  0  0  0  0  0  0  0
   40.7780   21.3950   33.3710 C   0  0  2  0  0  0  0  0  0  0  0  0
   39.5220   21.4960   32.5480 C   0  0  0  0  0  0  0  0  0  0  0  0
   40.0500   22.6180   33.3430 C   0  0  1  0  0  0  0  0  0  0  0  0
   40.7030   20.6370   34.1850 H   0  0  0  0  0  0  0  0  0  0  0  0
   38.6160   20.8980   32.8870 H   0  0  0  0  0  0  0  0  0  0  0  0
   39.6360   21.3280   31.4740 H   0  0  0  0  0  0  0  0  0  0  0  0
   40.1800   23.6150   33.1140 H   0  0  0  0  0  0  0  0  0  0  0  0
   39.2640   22.7520   34.6160 N   0  0  0  0  0  0  0  0  0  0  0  0
   38.1780   22.0090   34.7510 C   0  0  0  0  0  3  0  0  0  0  0  0
   37.4680   22.1500   35.9360 C   0  0  0  0  0  0  0  0  0  0  0  0
   36.2410   21.3710   36.1930 C   0  0  0  0  0  1  0  0  0  0  0  0
   37.9280   23.0460   36.8970 C   0  0  0  0  0  0  0  0  0  0  0  0
   37.2800   23.1680   37.9660 O   0  0  0  0  0  0  0  0  0  0  0  0
   39.0410   23.7840   36.7180 N   0  0  0  0  0  0  0  0  0  0  0  0
   39.7000   23.6180   35.5550 C   0  0  0  0  0  0  0  0  0  0  0  0
   40.7340   24.3170   35.4130 O   0  0  0  0  0  0  0  0  0  0  0  0
   39.3480   24.4430   37.4650 H   0  0  0  0  0  0  0  0  0  0  0  0
   42.8960   20.2330   33.3240 C   0  0  0  0  0  0  0  0  0  0  0  0
   42.3730   19.4020   33.7040 H   0  0  0  0  0  0  0  0  0  0  0  0
   43.4780   19.6830   32.4880 H   0  0  0  0  0  0  0  0  0  0  0  0
   45.2580   21.2680   35.7980 C   0  0  0  0  0  0  0  0  0  0  0  0
   44.1390   20.5770   35.2680 C   0  0  0  0  0  0  0  0  0  0  0  0
   43.9600   20.8870   33.9830 C   0  0  0  0  0  0  0  0  0  0  0  0
   44.7850   21.7740   33.2950 N   0  0  0  0  0  0  0  0  0  0  0  0
   45.8110   22.3830   33.8550 C   0  0  0  0  0  0  0  0  0  0  0  0
   46.0560   22.1300   35.1200 N   0  0  0  0  0  0  0  0  0  0  0  0
   45.5880   21.1570   36.8480 H   0  0  0  0  0  0  0  0  0  0  0  0
   46.3810   23.0380   33.2590 H   0  0  0  0  0  0  0  0  0  0  0  0
   43.4790   19.7250   36.1890 C   0  0  0  0  0  0  0  0  0  0  0  0
   42.2080   20.2310   36.5640 F   0  0  0  0  0  0  0  0  0  0  0  0
   43.8390   19.6550   37.4830 F   0  0  0  0  0  0  0  0  0  0  0  0
   42.8820   18.5640   35.7140 F   0  0  0  0  0  0  0  0  0  0  0  0
  1 21  1  0  0  0  0
  1  4  1  0  0  0  0
  2  1  1  0  0  0  0
  3  1  1  0  0  0  0
  4  7  1  1  0  0  0
  5  8  1  0  0  0  0
  5  6  1  0  0  0  0
  5  4  1  0  0  0  0
  6 10  1  6  0  0  0
  6  4  1  0  0  0  0
  6 11  1  0  0  0  0
  9  5  1  0  0  0  0
 11 12  1  0  0  0  0
 11 18  1  0  0  0  0
 12 13  2  0  0  0  0
 13 14  1  0  0  0  0
 13 15  1  0  0  0  0
 15 16  2  0  0  0  0
 17 15  1  0  0  0  0
 17 20  1  0  0  0  0
 18 17  1  0  0  0  0
 19 18  2  0  0  0  0
 21 22  1  0  0  0  0
 21 26  1  0  0  0  0
 23 21  1  0  0  0  0
 24 30  1  0  0  0  0
 25 24  1  0  0  0  0
 25 32  1  0  0  0  0
 26 25  2  0  0  0  0
 27 28  2  0  0  0  0
 27 26  1  0  0  0  0
 28 29  1  0  0  0  0
 29 24  2  0  0  0  0
 31 28  1  0  0  0  0
 32 33  1  0  0  0  0
 32 34  1  0  0  0  0
 35 32  1  0  0  0  0
M  END
>  <minimizedAffinity>
-3.1968267

>  <minimizedRMSD>
4.54537821

$$$$
