
 OpenBabel03262519433D

 25 26  0  0  1  0  0  0  0  0999 V2000
   38.0860   23.8210   36.8960 C   0  0  1  0  0  0  0  0  0  0  0  0
   37.4050   23.6770   36.0050 H   0  0  0  0  0  0  0  0  0  0  0  0
   41.3570   21.9250   37.2650 C   0  0  0  0  0  0  0  0  0  0  0  0
   40.1820   22.6340   37.5960 C   0  0  0  0  0  0  0  0  0  0  0  0
   39.3070   23.0640   36.5630 C   0  0  0  0  0  0  0  0  0  0  0  0
   39.6750   22.7510   35.2960 N   0  0  0  0  0  0  0  0  0  0  0  0
   40.7860   22.0810   34.9900 C   0  0  0  0  0  0  0  0  0  0  0  0
   41.6320   21.6660   35.9800 N   0  0  0  0  0  0  0  0  0  0  0  0
   41.9940   21.6180   38.0920 H   0  0  0  0  0  0  0  0  0  0  0  0
   39.9680   22.8410   38.6410 H   0  0  0  0  0  0  0  0  0  0  0  0
   41.0260   21.8600   33.9400 H   0  0  0  0  0  0  0  0  0  0  0  0
   37.3610   23.2530   38.0990 C   0  0  0  0  0  0  0  0  0  0  0  0
   38.0750   23.2120   38.9660 H   0  0  0  0  0  0  0  0  0  0  0  0
   36.8800   22.2800   37.9080 H   0  0  0  0  0  0  0  0  0  0  0  0
   36.5980   24.0160   38.3830 H   0  0  0  0  0  0  0  0  0  0  0  0
   38.3370   25.2790   37.1010 C   0  0  0  0  0  0  0  0  0  0  0  0
   39.2650   25.3400   37.7340 H   0  0  0  0  0  0  0  0  0  0  0  0
   37.4830   25.7590   37.6380 H   0  0  0  0  0  0  0  0  0  0  0  0
   38.6380   25.9530   35.8330 C   0  0  0  0  0  0  0  0  0  0  0  0
   37.4030   26.1300   35.1890 C   0  0  0  0  0  3  0  0  0  0  0  0
   37.2540   26.7420   33.9390 C   0  0  0  0  0  3  0  0  0  0  0  0
   38.3520   27.1930   33.3030 N   0  0  0  0  0  0  0  0  0  0  0  0
   39.5430   27.0150   33.9370 C   0  0  0  0  0  0  0  0  0  0  0  0
   40.5040   27.3250   33.5480 H   0  0  0  0  0  0  0  0  0  0  0  0
   39.6450   26.4340   35.1140 N   0  0  0  0  0  0  0  0  0  0  0  0
  1  2  1  6  0  0  0
  1 16  1  0  0  0  0
  1 12  1  0  0  0  0
  3  4  1  0  0  0  0
  3  9  1  0  0  0  0
  4 10  1  0  0  0  0
  5  1  1  0  0  0  0
  5  4  2  0  0  0  0
  6  5  1  0  0  0  0
  7  6  2  0  0  0  0
  7  8  1  0  0  0  0
  8  3  2  0  0  0  0
 11  7  1  0  0  0  0
 12 15  1  0  0  0  0
 12 13  1  0  0  0  0
 14 12  1  0  0  0  0
 16 18  1  0  0  0  0
 16 17  1  0  0  0  0
 19 16  1  0  0  0  0
 20 19  1  0  0  0  0
 21 20  2  0  0  0  0
 22 23  2  0  0  0  0
 22 21  1  0  0  0  0
 23 25  1  0  0  0  0
 24 23  1  0  0  0  0
 25 19  2  0  0  0  0
M  END
>  <minimizedAffinity>
-3.68210435

>  <minimizedRMSD>
1.28502786

$$$$
