
 OpenBabel03262519473D

 42 45  0  0  1  0  0  0  0  0999 V2000
   37.4210   25.4790   32.9450 N   0  0  0  0  0  0  0  0  0  0  0  0
   36.9860   24.3060   32.4720 C   0  0  0  0  0  0  0  0  0  0  0  0
   35.9700   24.4130   31.5520 C   0  0  0  0  0  0  0  0  0  0  0  0
   35.7650   25.7290   31.4470 N   0  0  0  0  0  0  0  0  0  0  0  0
   36.6320   26.3670   32.2800 C   0  0  0  0  0  0  0  0  0  0  0  0
   37.4250   23.3530   32.8120 H   0  0  0  0  0  0  0  0  0  0  0  0
   35.5100   23.5350   31.0740 H   0  0  0  0  0  0  0  0  0  0  0  0
   36.6330   27.8810   32.3340 C   0  0  1  0  0  0  0  0  0  0  0  0
   36.3120   28.5850   31.0730 C   0  0  0  0  0  0  0  0  0  0  0  0
   35.2810   28.5520   32.1660 C   0  0  2  0  0  0  0  0  0  0  0  0
   37.2820   28.2320   33.1350 H   0  0  0  0  0  0  0  0  0  0  0  0
   36.8080   29.5240   30.7730 H   0  0  0  0  0  0  0  0  0  0  0  0
   36.0660   27.9500   30.1970 H   0  0  0  0  0  0  0  0  0  0  0  0
   34.4380   27.8690   32.0790 H   0  0  0  0  0  0  0  0  0  0  0  0
   34.9770   29.7510   32.9110 N   0  0  0  0  0  0  0  0  0  0  0  0
   35.5860   30.0570   34.0830 C   0  0  0  0  0  3  0  0  0  0  0  0
   35.3050   31.1990   34.8050 C   0  0  0  0  0  0  0  0  0  0  0  0
   35.9860   31.5140   36.0890 C   0  0  0  0  0  1  0  0  0  0  0  0
   34.3580   32.0970   34.3330 C   0  0  0  0  0  0  0  0  0  0  0  0
   34.0980   33.1390   34.9870 O   0  0  0  0  0  0  0  0  0  0  0  0
   33.7580   31.7840   33.1670 N   0  0  0  0  0  0  0  0  0  0  0  0
   34.0770   30.6530   32.5120 C   0  0  0  0  0  0  0  0  0  0  0  0
   33.4470   30.4960   31.4550 O   0  0  0  0  0  0  0  0  0  0  0  0
   33.0530   32.4740   32.8360 H   0  0  0  0  0  0  0  0  0  0  0  0
   38.3970   25.8790   33.8790 C   0  0  0  0  0  0  0  0  0  0  0  0
   38.8340   26.8780   33.5880 H   0  0  0  0  0  0  0  0  0  0  0  0
   39.2820   25.1830   33.8640 H   0  0  0  0  0  0  0  0  0  0  0  0
   37.8980   25.9380   35.2760 C   0  0  1  0  0  0  0  0  0  0  0  0
   36.7860   25.8550   35.2920 H   0  0  0  0  0  0  0  0  0  0  0  0
   38.4820   23.5910   38.1880 C   0  0  0  0  0  0  0  0  0  0  0  0
   37.9030   24.6240   37.4430 C   0  0  0  0  0  0  0  0  0  0  0  0
   38.4500   24.8780   36.1420 C   0  0  0  0  0  0  0  0  0  0  0  0
   39.5080   24.1050   35.6890 N   0  0  0  0  0  0  0  0  0  0  0  0
   40.0220   23.1320   36.4380 C   0  0  0  0  0  0  0  0  0  0  0  0
   39.5140   22.8690   37.6910 N   0  0  0  0  0  0  0  0  0  0  0  0
   38.0520   23.4220   39.1590 H   0  0  0  0  0  0  0  0  0  0  0  0
   37.0850   25.2340   37.7750 H   0  0  0  0  0  0  0  0  0  0  0  0
   40.8490   22.5570   36.0330 H   0  0  0  0  0  0  0  0  0  0  0  0
   38.1810   27.3100   35.8820 C   0  0  0  0  0  0  0  0  0  0  0  0
   38.4180   28.0040   35.0760 H   0  0  0  0  0  0  0  0  0  0  0  0
   37.3640   27.6640   36.5090 H   0  0  0  0  0  0  0  0  0  0  0  0
   39.0590   27.1680   36.5680 H   0  0  0  0  0  0  0  0  0  0  0  0
  1 25  1  0  0  0  0
  2  6  1  0  0  0  0
  2  1  1  0  0  0  0
  3  2  2  0  0  0  0
  4  3  1  0  0  0  0
  4  5  2  0  0  0  0
  5  8  1  0  0  0  0
  5  1  1  0  0  0  0
  7  3  1  0  0  0  0
  8 11  1  1  0  0  0
  9 10  1  0  0  0  0
  9  8  1  0  0  0  0
 10 14  1  6  0  0  0
 10  8  1  0  0  0  0
 10 15  1  0  0  0  0
 12  9  1  0  0  0  0
 13  9  1  0  0  0  0
 15 16  1  0  0  0  0
 16 17  2  0  0  0  0
 17 18  1  0  0  0  0
 19 17  1  0  0  0  0
 19 20  2  0  0  0  0
 21 19  1  0  0  0  0
 22 15  1  0  0  0  0
 22 21  1  0  0  0  0
 23 22  2  0  0  0  0
 24 21  1  0  0  0  0
 25 28  1  0  0  0  0
 26 25  1  0  0  0  0
 27 25  1  0  0  0  0
 28 29  1  6  0  0  0
 28 39  1  0  0  0  0
 28 32  1  0  0  0  0
 30 36  1  0  0  0  0
 31 37  1  0  0  0  0
 31 30  2  0  0  0  0
 32 31  1  0  0  0  0
 33 32  2  0  0  0  0
 33 34  1  0  0  0  0
 34 35  2  0  0  0  0
 35 30  1  0  0  0  0
 38 34  1  0  0  0  0
 39 41  1  0  0  0  0
 39 42  1  0  0  0  0
 40 39  1  0  0  0  0
M  END
>  <minimizedAffinity>
-5.92141485

>  <minimizedRMSD>
2.0067842

$$$$
