
 OpenBabel03262519203D

 30 34  0  0  1  0  0  0  0  0999 V2000
   37.8900   25.2740   34.4240 C   0  0  0  0  0  0  0  0  0  0  0  0
   38.3900   25.4590   35.7090 C   0  0  0  0  0  0  0  0  0  0  0  0
   38.3440   26.7410   36.2510 C   0  0  0  0  0  0  0  0  0  0  0  0
   37.8180   27.7570   35.5220 N   0  0  0  0  0  0  0  0  0  0  0  0
   37.3350   27.5320   34.2600 C   0  0  0  0  0  0  0  0  0  0  0  0
   37.3730   26.2960   33.7220 N   0  0  0  0  0  0  0  0  0  0  0  0
   38.7220   26.9400   37.2500 H   0  0  0  0  0  0  0  0  0  0  0  0
   36.9310   28.4140   33.7510 H   0  0  0  0  0  0  0  0  0  0  0  0
   37.8920   24.0010   33.7840 N   0  0  0  0  0  0  0  0  0  0  0  0
   37.9590   23.7220   32.4700 C   0  0  0  0  0  0  0  0  0  0  0  0
   37.9490   22.4120   32.0530 C   0  0  0  0  0  0  0  0  0  0  0  0
   38.0230   22.1430   30.5910 C   0  0  0  0  0  0  0  0  0  0  0  0
   37.8720   21.3900   32.9670 C   0  0  0  0  0  0  0  0  0  0  0  0
   37.8630   20.1760   32.5690 O   0  0  0  0  0  0  0  0  0  0  0  0
   37.8060   21.6960   34.2950 N   0  0  0  0  0  0  0  0  0  0  0  0
   37.8160   22.9940   34.6780 C   0  0  1  0  0  0  0  0  0  0  0  0
   37.7500   23.1180   35.9380 O   0  0  0  0  0  0  0  0  0  0  0  0
   37.7480   20.8830   34.9510 H   0  0  0  0  0  0  0  0  0  0  0  0
   38.9210   24.3950   36.4250 N   0  0  0  0  0  0  0  0  0  0  0  0
   38.3600   23.7890   37.4990 C   0  0  0  0  0  0  0  0  0  0  0  0
   39.1280   22.7860   37.9650 N   0  0  0  0  0  0  0  0  0  0  0  0
   40.2120   22.7490   37.1660 C   0  0  0  0  0  0  0  0  0  0  0  0
   41.3460   21.9590   37.1280 C   0  0  0  0  0  0  0  0  0  0  0  0
   42.3260   22.0930   36.2280 N   0  0  0  0  0  0  0  0  0  0  0  0
   42.1510   23.0850   35.3140 C   0  0  0  0  0  0  0  0  0  0  0  0
   41.0570   23.8480   35.3530 N   0  0  0  0  0  0  0  0  0  0  0  0
   40.0630   23.7450   36.2300 C   0  0  0  0  0  0  0  0  0  0  0  0
   37.4170   24.0350   37.9670 H   0  0  0  0  0  0  0  0  0  0  0  0
   41.4670   21.1690   37.8700 H   0  0  0  0  0  0  0  0  0  0  0  0
   42.8620   23.3100   34.5270 H   0  0  0  0  0  0  0  0  0  0  0  0
  1  2  1  0  0  0  0
  2  3  2  0  0  0  0
  2 19  1  0  0  0  0
  3  7  1  0  0  0  0
  4  3  1  0  0  0  0
  5  4  2  0  0  0  0
  6  5  1  0  0  0  0
  6  1  2  0  0  0  0
  8  5  1  0  0  0  0
  9  1  1  0  0  0  0
  9 16  1  0  0  0  0
 10  9  1  0  0  0  0
 11 10  2  0  0  0  0
 11 13  1  0  0  0  0
 12 11  1  0  0  0  0
 13 15  1  0  0  0  0
 14 13  2  0  0  0  0
 15 16  1  0  0  0  0
 15 18  1  0  0  0  0
 16 17  1  1  0  0  0
 17 19  1  0  0  0  0
 19 20  1  0  0  0  0
 20 21  2  0  0  0  0
 20 28  1  0  0  0  0
 22 21  1  0  0  0  0
 23 22  1  0  0  0  0
 23 29  1  0  0  0  0
 24 23  2  0  0  0  0
 25 26  2  0  0  0  0
 25 24  1  0  0  0  0
 26 27  1  0  0  0  0
 27 19  1  0  0  0  0
 27 22  2  0  0  0  0
 30 25  1  0  0  0  0
M  END
>  <minimizedAffinity>
-5.52305603

>  <minimizedRMSD>
0.590323746

$$$$
