
 OpenBabel03262519283D

 34 37  0  0  0  0  0  0  0  0999 V2000
   39.6710   22.7110   37.4300 C   0  0  0  0  0  0  0  0  0  0  0  0
   38.9480   23.6030   38.2360 C   0  0  0  0  0  0  0  0  0  0  0  0
   37.6050   23.8380   37.8870 C   0  0  0  0  0  0  0  0  0  0  0  0
   37.0910   23.1970   36.8070 N   0  0  0  0  0  0  0  0  0  0  0  0
   37.8370   22.3450   36.0640 C   0  0  0  0  0  0  0  0  0  0  0  0
   39.1120   22.0950   36.3600 N   0  0  0  0  0  0  0  0  0  0  0  0
   39.4140   24.0860   39.0890 H   0  0  0  0  0  0  0  0  0  0  0  0
   37.0080   24.5150   38.4760 H   0  0  0  0  0  0  0  0  0  0  0  0
   37.1200   21.7750   34.9770 N   0  0  0  0  0  0  0  0  0  0  0  0
   37.3820   22.0000   33.6970 C   0  0  0  0  0  0  0  0  0  0  0  0
   36.6480   21.4160   32.7060 C   0  0  0  0  0  0  0  0  0  0  0  0
   36.8810   21.6200   31.2530 C   0  0  0  0  0  0  0  0  0  0  0  0
   35.6040   20.5690   33.0070 C   0  0  0  0  0  0  0  0  0  0  0  0
   34.8760   19.9880   32.1330 O   0  0  0  0  0  0  0  0  0  0  0  0
   35.3140   20.3210   34.2950 N   0  0  0  0  0  0  0  0  0  0  0  0
   36.0850   20.9350   35.2310 C   0  0  0  0  0  0  0  0  0  0  0  0
   35.7910   20.6840   36.4240 O   0  0  0  0  0  0  0  0  0  0  0  0
   34.5460   19.6960   34.5690 H   0  0  0  0  0  0  0  0  0  0  0  0
   40.9670   22.4930   37.7750 O   0  0  0  0  0  0  0  0  0  0  0  0
   42.0420   22.4030   36.9180 C   0  0  0  0  0  0  0  0  0  0  0  0
   42.5170   23.3970   36.0950 C   0  0  0  0  0  0  0  0  0  0  0  0
   43.5770   22.9690   35.3950 N   0  0  0  0  0  0  0  0  0  0  0  0
   43.8470   21.6880   35.7190 C   0  0  0  0  0  0  0  0  0  0  0  0
   44.8100   20.7800   35.3070 C   0  0  0  0  0  0  0  0  0  0  0  0
   44.8260   19.4930   35.8440 C   0  0  0  0  0  0  0  0  0  0  0  0
   43.8700   19.1270   36.7980 C   0  0  0  0  0  0  0  0  0  0  0  0
   42.9080   20.0490   37.2050 C   0  0  0  0  0  0  0  0  0  0  0  0
   42.8980   21.3250   36.6660 C   0  0  0  0  0  0  0  0  0  0  0  0
   42.1110   24.3850   36.0110 H   0  0  0  0  0  0  0  0  0  0  0  0
   44.1350   23.4980   34.7040 H   0  0  0  0  0  0  0  0  0  0  0  0
   45.5520   21.0540   34.5700 H   0  0  0  0  0  0  0  0  0  0  0  0
   45.5530   18.7450   35.5580 H   0  0  0  0  0  0  0  0  0  0  0  0
   43.9060   18.1250   37.1970 H   0  0  0  0  0  0  0  0  0  0  0  0
   42.1780   19.7450   37.9430 H   0  0  0  0  0  0  0  0  0  0  0  0
  1 19  1  0  0  0  0
  1  2  1  0  0  0  0
  2  7  1  0  0  0  0
  3  2  2  0  0  0  0
  3  8  1  0  0  0  0
  4  3  1  0  0  0  0
  5  6  1  0  0  0  0
  5  4  2  0  0  0  0
  6  1  2  0  0  0  0
  9 16  1  0  0  0  0
  9  5  1  0  0  0  0
 10  9  1  0  0  0  0
 11 13  1  0  0  0  0
 11 10  2  0  0  0  0
 12 11  1  0  0  0  0
 13 15  1  0  0  0  0
 14 13  2  0  0  0  0
 15 18  1  0  0  0  0
 15 16  1  0  0  0  0
 16 17  2  0  0  0  0
 20 19  1  0  0  0  0
 21 20  2  0  0  0  0
 22 23  1  0  0  0  0
 22 21  1  0  0  0  0
 23 28  1  0  0  0  0
 24 23  2  0  0  0  0
 24 25  1  0  0  0  0
 25 26  2  0  0  0  0
 26 33  1  0  0  0  0
 26 27  1  0  0  0  0
 27 34  1  0  0  0  0
 28 20  1  0  0  0  0
 28 27  2  0  0  0  0
 29 21  1  0  0  0  0
 30 22  1  0  0  0  0
 31 24  1  0  0  0  0
 32 25  1  0  0  0  0
M  END
>  <minimizedAffinity>
-6.23643923

>  <minimizedRMSD>
1.85826337

$$$$
