
     RDKit          3D

 27 28  0  0  0  0  0  0  0  0999 V2000
   41.0494   21.9091   37.4441 C   0  0  0  0  0  0  0  0  0  0  0  0
   39.9632   22.7492   37.7703 C   0  0  0  0  0  0  0  0  0  0  0  0
   39.1775   23.3178   36.7309 C   0  0  0  0  0  0  0  0  0  0  0  0
   39.5409   23.0014   35.4636 N   0  0  0  0  0  0  0  0  0  0  0  0
   40.5686   22.2072   35.1617 C   0  0  0  0  0  0  0  0  0  0  0  0
   41.3274   21.6576   36.1585 N   0  0  0  0  0  0  0  0  0  0  0  0
   38.0523   24.2107   37.0605 C   0  0  1  0  0  0  0  0  0  0  0  0
   37.8761   24.3974   38.5534 C   0  0  0  0  0  0  0  0  0  0  0  0
   38.1446   25.5427   36.3931 C   0  0  0  0  0  0  0  0  0  0  0  0
   41.6190   21.4990   38.2765 H   0  0  0  0  0  0  0  0  0  0  0  0
   39.7447   22.9481   38.8159 H   0  0  0  0  0  0  0  0  0  0  0  0
   40.8099   21.9910   34.1120 H   0  0  0  0  0  0  0  0  0  0  0  0
   37.1343   23.6661   36.6885 H   0  0  0  0  0  0  0  0  0  0  0  0
   38.8426   24.7697   38.9884 H   0  0  0  0  0  0  0  0  0  0  0  0
   37.5044   23.4986   39.0722 H   0  0  0  0  0  0  0  0  0  0  0  0
   37.1564   25.2423   38.6724 H   0  0  0  0  0  0  0  0  0  0  0  0
   39.1574   25.9497   36.6687 H   0  0  0  0  0  0  0  0  0  0  0  0
   37.3495   26.2332   36.7655 H   0  0  0  0  0  0  0  0  0  0  0  0
   38.1194   25.4126   34.9320 C   0  0  0  0  0  0  0  0  0  0  0  0
   39.1454   26.2448   34.4550 C   0  0  0  0  0  0  0  0  0  0  0  0
   39.4544   26.4053   33.0984 C   0  0  0  0  0  0  0  0  0  0  0  0
   38.7334   25.7276   32.1854 N   0  0  0  0  0  0  0  0  0  0  0  0
   37.7425   24.9248   32.6605 C   0  0  0  0  0  0  0  0  0  0  0  0
   37.0857   24.3236   32.0453 H   0  0  0  0  0  0  0  0  0  0  0  0
   37.4804   24.7986   33.9436 N   0  0  0  0  0  0  0  0  0  0  0  0
   39.8604   26.8901   35.0001 H   0  0  0  0  0  0  0  0  0  0  0  0
   40.2160   27.0160   32.6487 H   0  0  0  0  0  0  0  0  0  0  0  0
  1  2  2  0
  3  7  1  0
  3  2  1  0
  4  3  2  0
  5  4  1  0
  5  6  2  0
  6  1  1  0
  7  8  1  0
  9  7  1  0
  1 10  1  0
  2 11  1  0
  5 12  1  0
  7 13  1  6
  8 14  1  0
  8 15  1  0
  8 16  1  0
  9 17  1  0
  9 18  1  0
 19 20  2  0
 20 21  1  0
 21 22  2  0
 22 23  1  0
 23 24  1  0
 23 25  2  0
 25 19  1  0
 20 26  1  0
 21 27  1  0
  9 19  1  0
M  ISO  8  10  14  11  14  12  14  13   8  14   8  15   8  16   8  17   8
M  ISO  2  18   8  24  14
M  END
>  <DihAtoms>  (1) 
6,8,18,19

>  <DihDeg>  (1) 
-179.34757240463884

$$$$
