
 OpenBabel03262517463D

 32 35  0  0  0  0  0  0  0  0999 V2000
   39.7260   22.7790   37.8850 C   0  0  0  0  0  0  0  0  0  0  0  0
   38.7660   23.4970   38.6080 C   0  0  0  0  0  0  0  0  0  0  0  0
   37.7590   24.1590   37.9020 C   0  0  0  0  0  0  0  0  0  0  0  0
   37.7740   24.0640   36.5350 N   0  0  0  0  0  0  0  0  0  0  0  0
   38.7190   23.3610   35.8670 C   0  0  0  0  0  0  0  0  0  0  0  0
   39.6930   22.7200   36.5430 N   0  0  0  0  0  0  0  0  0  0  0  0
   38.6150   23.3460   34.4470 N   0  0  0  0  0  0  0  0  0  0  0  0
   39.0470   22.3230   33.6700 C   0  0  0  0  0  0  0  0  0  0  0  0
   38.8120   22.6000   32.3710 N   0  0  0  0  0  0  0  0  0  0  0  0
   38.2240   23.8050   32.2820 C   0  0  0  0  0  0  0  0  0  0  0  0
   37.7400   24.6390   31.2630 C   0  0  0  0  0  0  0  0  0  0  0  0
   37.1900   25.8220   31.5340 N   0  0  0  0  0  0  0  0  0  0  0  0
   37.0990   26.2200   32.8180 C   0  0  0  0  0  0  0  0  0  0  0  0
   37.5460   25.4570   33.8270 N   0  0  0  0  0  0  0  0  0  0  0  0
   38.1060   24.2590   33.5860 C   0  0  0  0  0  0  0  0  0  0  0  0
   37.9180   24.0610   29.9720 N   0  0  0  0  0  0  0  0  0  0  0  0
   40.4860   22.2830   38.4750 H   0  0  0  0  0  0  0  0  0  0  0  0
   38.7290   23.5900   39.6800 H   0  0  0  0  0  0  0  0  0  0  0  0
   36.9660   24.7410   38.3300 H   0  0  0  0  0  0  0  0  0  0  0  0
   39.5200   21.4050   34.0400 H   0  0  0  0  0  0  0  0  0  0  0  0
   37.0160   23.8060   29.4690 H   0  0  0  0  0  0  0  0  0  0  0  0
   38.8440   23.8890   29.5270 H   0  0  0  0  0  0  0  0  0  0  0  0
   36.5180   27.4750   33.1530 N   0  0  0  0  0  0  0  0  0  0  0  0
   35.8010   28.3030   32.3720 C   0  0  0  0  0  0  0  0  0  0  0  0
   35.3200   29.4830   32.8780 C   0  0  0  0  0  0  0  0  0  0  0  0
   34.5260   30.3720   31.9740 C   0  0  0  0  0  0  0  0  0  0  0  0
   35.5690   29.8190   34.1810 C   0  0  0  0  0  0  0  0  0  0  0  0
   35.1090   30.9110   34.6030 O   0  0  0  0  0  0  0  0  0  0  0  0
   36.2890   28.9760   34.9400 N   0  0  0  0  0  0  0  0  0  0  0  0
   36.7740   27.8000   34.4510 C   0  0  0  0  0  0  0  0  0  0  0  0
   37.4300   27.1060   35.2720 O   0  0  0  0  0  0  0  0  0  0  0  0
   36.4630   29.2620   35.9340 H   0  0  0  0  0  0  0  0  0  0  0  0
  1 17  1  0  0  0  0
  1  2  1  0  0  0  0
  2 18  1  0  0  0  0
  3 19  1  0  0  0  0
  3  2  2  0  0  0  0
  4  3  1  0  0  0  0
  5  4  2  0  0  0  0
  5  6  1  0  0  0  0
  6  1  2  0  0  0  0
  7  5  1  0  0  0  0
  8 20  1  0  0  0  0
  8  7  1  0  0  0  0
  9  8  2  0  0  0  0
 10  9  1  0  0  0  0
 10 15  1  0  0  0  0
 11 12  1  0  0  0  0
 11 10  2  0  0  0  0
 12 13  2  0  0  0  0
 13 23  1  0  0  0  0
 13 14  1  0  0  0  0
 15 14  2  0  0  0  0
 15  7  1  0  0  0  0
 16 11  1  0  0  0  0
 21 16  1  0  0  0  0
 22 16  1  0  0  0  0
 23 30  1  0  0  0  0
 24 25  2  0  0  0  0
 24 23  1  0  0  0  0
 25 27  1  0  0  0  0
 26 25  1  0  0  0  0
 27 28  2  0  0  0  0
 27 29  1  0  0  0  0
 29 32  1  0  0  0  0
 30 29  1  0  0  0  0
 30 31  2  0  0  0  0
M  END
>  <minimizedAffinity>
-6.65861082

>  <minimizedRMSD>
1.98367095

$$$$
