
 OpenBabel03262518383D

 47 50  0  0  0  0  0  0  0  0999 V2000
   37.1650   26.7490   34.5410 C   0  0  0  0  0  0  0  0  0  0  0  0
   37.2520   25.9160   33.4360 C   0  0  0  0  0  0  0  0  0  0  0  0
   36.6210   26.3250   32.2470 C   0  0  0  0  0  0  0  0  0  0  0  0
   35.9690   27.5040   32.2610 N   0  0  0  0  0  0  0  0  0  0  0  0
   35.8920   28.2960   33.3310 C   0  0  0  0  0  0  0  0  0  0  0  0
   36.4960   27.9250   34.4990 N   0  0  0  0  0  0  0  0  0  0  0  0
   37.7780   24.9690   33.4310 H   0  0  0  0  0  0  0  0  0  0  0  0
   36.6520   25.7270   31.3620 H   0  0  0  0  0  0  0  0  0  0  0  0
   37.8220   26.3290   35.7860 C   0  0  0  0  0  0  0  0  0  0  0  0
   38.6610   27.0690   36.3150 O   0  0  0  0  0  0  0  0  0  0  0  0
   37.4810   25.1110   36.3320 O   0  0  0  0  0  0  0  0  0  0  0  0
   39.4270   22.8190   38.1940 N   0  0  0  0  0  0  0  0  0  0  0  0
   38.3690   23.6120   37.9990 N   0  0  0  0  0  0  0  0  0  0  0  0
   38.4830   24.2130   36.7810 C   0  0  0  0  0  0  0  0  0  0  0  0
   39.6430   23.7880   36.1940 C   0  0  0  0  0  0  0  0  0  0  0  0
   40.2040   22.9260   37.0940 C   0  0  0  0  0  0  0  0  0  0  0  0
   39.6690   22.2150   39.0010 H   0  0  0  0  0  0  0  0  0  0  0  0
   39.9690   24.1170   35.2200 H   0  0  0  0  0  0  0  0  0  0  0  0
   41.4890   22.2130   36.8790 C   0  0  0  0  0  0  0  0  0  0  0  0
   42.5080   22.8500   36.2170 C   0  0  0  0  0  0  0  0  0  0  0  0
   43.6600   22.1120   36.0650 C   0  0  0  0  0  0  0  0  0  0  0  0
   43.8470   20.8420   36.5090 N   0  0  0  0  0  0  0  0  0  0  0  0
   42.8000   20.2650   37.1580 C   0  0  0  0  0  0  0  0  0  0  0  0
   41.6510   20.9470   37.3320 N   0  0  0  0  0  0  0  0  0  0  0  0
   42.4370   23.8580   35.8320 H   0  0  0  0  0  0  0  0  0  0  0  0
   44.5270   22.5210   35.5560 H   0  0  0  0  0  0  0  0  0  0  0  0
   42.9480   19.2540   37.5130 H   0  0  0  0  0  0  0  0  0  0  0  0
   35.1520   29.5800   33.2570 C   0  0  0  0  0  0  0  0  0  0  0  0
   35.9270   30.6050   34.0390 C   0  0  0  0  0  0  0  0  0  0  0  0
   35.2620   31.4350   34.3680 H   0  0  0  0  0  0  0  0  0  0  0  0
   36.3740   30.0810   34.9060 H   0  0  0  0  0  0  0  0  0  0  0  0
   36.6910   31.0870   33.3930 H   0  0  0  0  0  0  0  0  0  0  0  0
   33.8050   29.3550   33.9010 C   0  0  0  0  0  0  0  0  0  0  0  0
   33.6320   28.2800   34.1740 H   0  0  0  0  0  0  0  0  0  0  0  0
   33.0030   29.6510   33.1980 H   0  0  0  0  0  0  0  0  0  0  0  0
   33.6840   30.0080   34.7970 H   0  0  0  0  0  0  0  0  0  0  0  0
   34.9800   30.0270   31.8020 C   0  0  0  0  0  0  0  0  0  0  0  0
   34.1390   30.7650   31.7520 H   0  0  0  0  0  0  0  0  0  0  0  0
   34.7300   29.1810   31.1650 H   0  0  0  0  0  0  0  0  0  0  0  0
   36.1550   30.6930   31.4640 O   0  0  0  0  0  0  0  0  0  0  0  0
   36.6810   30.7420   30.1830 C   0  0  0  0  0  0  0  0  0  0  0  0
   37.2330   29.5230   29.7990 C   0  0  0  0  0  0  0  0  0  0  0  0
   37.8010   29.4320   28.5240 C   0  0  0  0  0  0  0  0  0  0  0  0
   38.2580   28.5370   28.1190 H   0  0  0  0  0  0  0  0  0  0  0  0
   37.7900   30.5110   27.7360 N   0  0  0  0  0  0  0  0  0  0  0  0
   37.2420   31.6940   28.1380 C   0  0  0  0  0  0  0  0  0  0  0  0
   36.6940   31.7890   29.3630 N   0  0  0  0  0  0  0  0  0  0  0  0
  1  9  1  0  0  0  0
  2  1  2  0  0  0  0
  3  4  2  0  0  0  0
  3  2  1  0  0  0  0
  4  5  1  0  0  0  0
  5  6  2  0  0  0  0
  6  1  1  0  0  0  0
  7  2  1  0  0  0  0
  8  3  1  0  0  0  0
  9 10  2  0  0  0  0
  9 11  1  0  0  0  0
 11 14  1  0  0  0  0
 12 17  1  0  0  0  0
 13 12  1  0  0  0  0
 14 13  2  0  0  0  0
 15 14  1  0  0  0  0
 15 16  2  0  0  0  0
 16 12  1  0  0  0  0
 18 15  1  0  0  0  0
 19 16  1  0  0  0  0
 19 24  1  0  0  0  0
 20 19  2  0  0  0  0
 21 20  1  0  0  0  0
 21 22  2  0  0  0  0
 22 23  1  0  0  0  0
 23 24  2  0  0  0  0
 23 27  1  0  0  0  0
 25 20  1  0  0  0  0
 26 21  1  0  0  0  0
 28  5  1  0  0  0  0
 28 33  1  0  0  0  0
 28 29  1  0  0  0  0
 29 30  1  0  0  0  0
 29 31  1  0  0  0  0
 32 29  1  0  0  0  0
 33 34  1  0  0  0  0
 33 36  1  0  0  0  0
 35 33  1  0  0  0  0
 37 28  1  0  0  0  0
 38 37  1  0  0  0  0
 39 37  1  0  0  0  0
 40 37  1  0  0  0  0
 41 40  1  0  0  0  0
 42 41  1  0  0  0  0
 43 42  2  0  0  0  0
 44 43  1  0  0  0  0
 45 46  2  0  0  0  0
 45 43  1  0  0  0  0
 46 47  1  0  0  0  0
 47 41  2  0  0  0  0
M  END
>  <minimizedAffinity>
-5.72306871

>  <minimizedRMSD>
0.695273221

$$$$
