
 OpenBabel03262519583D

 28 30  0  0  1  0  0  0  0  0999 V2000
   38.7810   23.6910   33.5420 C   0  0  0  0  0  0  0  0  0  0  0  0
   39.0320   22.6230   32.6830 C   0  0  0  0  0  0  0  0  0  0  0  0
   39.3590   21.6010   33.5220 N   0  0  0  0  0  0  0  0  0  0  0  0
   39.2960   22.0620   34.7680 C   0  0  0  0  0  0  0  0  0  0  0  0
   38.9410   23.3430   34.8080 N   0  0  0  0  0  0  0  0  0  0  0  0
   38.9780   22.6140   31.5870 H   0  0  0  0  0  0  0  0  0  0  0  0
   39.5230   21.4020   35.6120 H   0  0  0  0  0  0  0  0  0  0  0  0
   38.4020   25.0280   33.1110 C   0  0  0  0  0  0  0  0  0  0  0  0
   39.4030   26.0020   32.9140 C   0  0  0  0  0  0  0  0  0  0  0  0
   38.9930   27.2850   32.4900 C   0  0  0  0  0  0  0  0  0  0  0  0
   37.6640   27.4930   32.3020 N   0  0  0  0  0  0  0  0  0  0  0  0
   36.7360   26.5270   32.5020 C   0  0  0  0  0  0  0  0  0  0  0  0
   37.1000   25.2950   32.9070 N   0  0  0  0  0  0  0  0  0  0  0  0
   40.4420   25.7740   33.0820 H   0  0  0  0  0  0  0  0  0  0  0  0
   39.7610   28.0070   32.3470 H   0  0  0  0  0  0  0  0  0  0  0  0
   35.7250   26.8510   32.3090 H   0  0  0  0  0  0  0  0  0  0  0  0
   38.7930   24.0670   36.0180 C   0  0  1  0  0  0  0  0  0  0  0  0
   37.6040   24.7340   36.4750 C   0  0  0  0  0  0  0  0  0  0  0  0
   38.0110   23.3530   37.0780 C   0  0  2  0  0  0  0  0  0  0  0  0
   39.7750   24.5490   36.3640 H   0  0  0  0  0  0  0  0  0  0  0  0
   36.6640   24.6950   35.9000 H   0  0  0  0  0  0  0  0  0  0  0  0
   37.6300   25.5950   37.1620 H   0  0  0  0  0  0  0  0  0  0  0  0
   38.4840   23.5120   38.5070 C   0  0  0  0  0  0  0  0  0  0  0  0
   37.9430   22.5230   39.2990 F   0  0  0  0  0  0  0  0  0  0  0  0
   39.9170   23.2230   38.5390 F   0  0  0  0  0  0  0  0  0  0  0  0
   38.3510   24.7520   39.0020 F   0  0  0  0  0  0  0  0  0  0  0  0
   36.9140   22.4930   36.9120 O   0  0  0  0  0  0  0  0  0  0  0  0
   36.1870   22.8850   37.4940 H   0  0  0  0  0  0  0  0  0  0  0  0
  1  5  1  0  0  0  0
  2  3  1  0  0  0  0
  2  1  2  0  0  0  0
  3  4  2  0  0  0  0
  4  5  1  0  0  0  0
  4  7  1  0  0  0  0
  5 17  1  0  0  0  0
  6  2  1  0  0  0  0
  8  1  1  0  0  0  0
  9 14  1  0  0  0  0
  9  8  1  0  0  0  0
 10  9  2  0  0  0  0
 11 10  1  0  0  0  0
 11 12  2  0  0  0  0
 12 13  1  0  0  0  0
 13  8  2  0  0  0  0
 15 10  1  0  0  0  0
 16 12  1  0  0  0  0
 17 20  1  1  0  0  0
 17 18  1  0  0  0  0
 17 19  1  0  0  0  0
 18 19  1  0  0  0  0
 18 22  1  0  0  0  0
 19 27  1  6  0  0  0
 19 23  1  0  0  0  0
 21 18  1  0  0  0  0
 23 25  1  0  0  0  0
 23 26  1  0  0  0  0
 23 24  1  0  0  0  0
 27 28  1  0  0  0  0
M  END
>  <minimizedAffinity>
-4.74521208

>  <minimizedRMSD>
0.916408539

$$$$
