
 OpenBabel03262519593D

 28 30  0  0  1  0  0  0  0  0999 V2000
   38.7810   23.6910   33.5420 C   0  0  0  0  0  0  0  0  0  0  0  0
   39.0320   22.6220   32.6840 C   0  0  0  0  0  0  0  0  0  0  0  0
   39.3590   21.6010   33.5220 N   0  0  0  0  0  0  0  0  0  0  0  0
   39.2960   22.0620   34.7690 C   0  0  0  0  0  0  0  0  0  0  0  0
   38.9410   23.3430   34.8090 N   0  0  0  0  0  0  0  0  0  0  0  0
   38.9780   22.6130   31.5870 H   0  0  0  0  0  0  0  0  0  0  0  0
   39.5220   21.4020   35.6120 H   0  0  0  0  0  0  0  0  0  0  0  0
   38.4020   25.0280   33.1100 C   0  0  0  0  0  0  0  0  0  0  0  0
   39.4030   26.0020   32.9140 C   0  0  0  0  0  0  0  0  0  0  0  0
   38.9930   27.2850   32.4900 C   0  0  0  0  0  0  0  0  0  0  0  0
   37.6650   27.4920   32.3010 N   0  0  0  0  0  0  0  0  0  0  0  0
   36.7360   26.5270   32.5010 C   0  0  0  0  0  0  0  0  0  0  0  0
   37.1010   25.2940   32.9060 N   0  0  0  0  0  0  0  0  0  0  0  0
   40.4420   25.7730   33.0820 H   0  0  0  0  0  0  0  0  0  0  0  0
   39.7610   28.0070   32.3470 H   0  0  0  0  0  0  0  0  0  0  0  0
   35.7250   26.8510   32.3080 H   0  0  0  0  0  0  0  0  0  0  0  0
   38.7920   24.0670   36.0190 C   0  0  1  0  0  0  0  0  0  0  0  0
   37.6030   24.7340   36.4750 C   0  0  0  0  0  0  0  0  0  0  0  0
   38.0110   23.3540   37.0780 C   0  0  2  0  0  0  0  0  0  0  0  0
   39.7750   24.5500   36.3640 H   0  0  0  0  0  0  0  0  0  0  0  0
   36.6640   24.6950   35.9000 H   0  0  0  0  0  0  0  0  0  0  0  0
   37.6300   25.5950   37.1620 H   0  0  0  0  0  0  0  0  0  0  0  0
   38.4840   23.5130   38.5070 C   0  0  0  0  0  0  0  0  0  0  0  0
   37.9440   22.5230   39.2990 F   0  0  0  0  0  0  0  0  0  0  0  0
   39.9170   23.2250   38.5390 F   0  0  0  0  0  0  0  0  0  0  0  0
   38.3500   24.7520   39.0020 F   0  0  0  0  0  0  0  0  0  0  0  0
   36.9130   22.4930   36.9130 O   0  0  0  0  0  0  0  0  0  0  0  0
   36.1020   23.0820   37.0360 H   0  0  0  0  0  0  0  0  0  0  0  0
  1  5  1  0  0  0  0
  2  3  1  0  0  0  0
  2  1  2  0  0  0  0
  3  4  2  0  0  0  0
  4  5  1  0  0  0  0
  4  7  1  0  0  0  0
  5 17  1  0  0  0  0
  6  2  1  0  0  0  0
  8  1  1  0  0  0  0
  9 14  1  0  0  0  0
  9  8  1  0  0  0  0
 10  9  2  0  0  0  0
 11 10  1  0  0  0  0
 11 12  2  0  0  0  0
 12 13  1  0  0  0  0
 13  8  2  0  0  0  0
 15 10  1  0  0  0  0
 16 12  1  0  0  0  0
 17 20  1  1  0  0  0
 17 18  1  0  0  0  0
 17 19  1  0  0  0  0
 18 19  1  0  0  0  0
 18 22  1  0  0  0  0
 19 27  1  6  0  0  0
 19 23  1  0  0  0  0
 21 18  1  0  0  0  0
 23 25  1  0  0  0  0
 23 26  1  0  0  0  0
 23 24  1  0  0  0  0
 27 28  1  0  0  0  0
M  END
>  <minimizedAffinity>
-4.74795341

>  <minimizedRMSD>
0.916220427

$$$$
