
 OpenBabel03262512093D

 35 37  0  0  1  0  0  0  0  0999 V2000
   38.3990   23.7590   34.0410 N   0  0  0  0  0  0  0  0  0  0  0  0
   39.1280   22.6950   34.7300 C   0  0  0  0  0  0  0  0  0  0  0  0
   40.5070   23.2900   34.8360 C   0  0  1  0  0  0  0  0  0  0  0  0
   40.4010   24.7180   34.3620 C   0  0  0  0  0  0  0  0  0  0  0  0
   38.9370   24.9280   34.6970 C   0  0  0  0  0  0  0  0  0  0  0  0
   38.6200   22.5490   35.7030 H   0  0  0  0  0  0  0  0  0  0  0  0
   39.1290   21.7420   34.1270 H   0  0  0  0  0  0  0  0  0  0  0  0
   41.2210   22.6760   34.2540 H   0  0  0  0  0  0  0  0  0  0  0  0
   40.5460   24.7700   33.2620 H   0  0  0  0  0  0  0  0  0  0  0  0
   41.0590   25.4160   34.9130 H   0  0  0  0  0  0  0  0  0  0  0  0
   38.8160   24.9070   35.7880 H   0  0  0  0  0  0  0  0  0  0  0  0
   38.5840   25.8690   34.2560 H   0  0  0  0  0  0  0  0  0  0  0  0
   37.4250   23.6630   33.0080 C   0  0  0  0  0  0  0  0  0  0  0  0
   36.9580   22.4050   32.5580 C   0  0  0  0  0  0  0  0  0  0  0  0
   36.0020   22.3790   31.5410 C   0  0  0  0  0  0  0  0  0  0  0  0
   35.5820   23.5790   31.0490 N   0  0  0  0  0  0  0  0  0  0  0  0
   36.0460   24.7410   31.4990 C   0  0  0  0  0  0  0  0  0  0  0  0
   36.9690   24.8160   32.4790 N   0  0  0  0  0  0  0  0  0  0  0  0
   37.3770   21.5410   33.0360 H   0  0  0  0  0  0  0  0  0  0  0  0
   35.6530   21.4160   31.2050 H   0  0  0  0  0  0  0  0  0  0  0  0
   35.6420   25.6390   31.0360 H   0  0  0  0  0  0  0  0  0  0  0  0
   40.8490   23.3230   36.2920 C   0  0  2  0  0  0  0  0  0  0  0  0
   41.5990   22.2360   36.9220 C   0  0  0  0  0  0  0  0  0  0  0  0
   40.0930   22.3250   37.1000 C   0  0  1  0  0  0  0  0  0  0  0  0
   40.9290   24.3320   36.7920 H   0  0  0  0  0  0  0  0  0  0  0  0
   42.2220   22.4700   37.8320 H   0  0  0  0  0  0  0  0  0  0  0  0
   42.0350   21.4730   36.2670 H   0  0  0  0  0  0  0  0  0  0  0  0
   39.5490   21.4900   36.5910 H   0  0  0  0  0  0  0  0  0  0  0  0
   39.5660   22.7160   38.4090 N   0  0  0  0  0  0  0  0  0  0  0  0
   40.0910   22.5130   39.2620 H   0  0  0  0  0  0  0  0  0  0  0  0
   38.3070   23.3770   38.3930 C   0  0  0  0  0  0  0  0  0  0  0  0
   37.1820   22.6990   37.8470 N   0  0  0  0  0  0  0  0  0  0  0  0
   38.1020   24.5560   38.8390 O   0  0  0  0  0  0  0  0  0  0  0  0
   36.2170   23.0720   37.8900 H   0  0  0  0  0  0  0  0  0  0  0  0
   37.2780   21.7780   37.3680 H   0  0  0  0  0  0  0  0  0  0  0  0
  1  5  1  0  0  0  0
  1  2  1  0  0  0  0
  2  3  1  0  0  0  0
  2  6  1  0  0  0  0
  3  8  1  6  0  0  0
  3 22  1  0  0  0  0
  4  5  1  0  0  0  0
  4  3  1  0  0  0  0
  4 10  1  0  0  0  0
  5 11  1  0  0  0  0
  7  2  1  0  0  0  0
  9  4  1  0  0  0  0
 12  5  1  0  0  0  0
 13  1  1  0  0  0  0
 14 13  1  0  0  0  0
 14 19  1  0  0  0  0
 15 14  2  0  0  0  0
 16 17  2  0  0  0  0
 16 15  1  0  0  0  0
 17 18  1  0  0  0  0
 18 13  2  0  0  0  0
 20 15  1  0  0  0  0
 21 17  1  0  0  0  0
 22 25  1  1  0  0  0
 22 23  1  0  0  0  0
 22 24  1  0  0  0  0
 23 24  1  0  0  0  0
 23 26  1  0  0  0  0
 24 28  1  6  0  0  0
 24 29  1  0  0  0  0
 27 23  1  0  0  0  0
 29 30  1  0  0  0  0
 31 29  1  0  0  0  0
 31 33  2  0  0  0  0
 32 34  1  0  0  0  0
 32 31  1  0  0  0  0
 35 32  1  0  0  0  0
M  END
>  <minimizedAffinity>
-5.10376596

>  <minimizedRMSD>
2.38832092

$$$$
