
 OpenBabel03262517263D

 44 46  0  0  0  0  0  0  0  0999 V2000
   38.5460   24.1750   33.9320 N   0  0  0  0  0  0  0  0  0  0  0  0
   38.5750   23.4120   32.8340 N   0  0  0  0  0  0  0  0  0  0  0  0
   38.2340   24.1240   31.7560 C   0  0  0  0  0  0  0  0  0  0  0  0
   37.9840   25.3930   32.2300 C   0  0  0  0  0  0  0  0  0  0  0  0
   38.1780   25.4380   33.6000 C   0  0  0  0  0  0  0  0  0  0  0  0
   38.1890   23.7160   30.7660 H   0  0  0  0  0  0  0  0  0  0  0  0
   37.8180   23.6000   36.1780 C   0  0  0  0  0  0  0  0  0  0  0  0
   38.8540   23.7300   35.2400 C   0  0  0  0  0  0  0  0  0  0  0  0
   40.1510   23.4280   35.5940 C   0  0  0  0  0  0  0  0  0  0  0  0
   40.3500   23.0070   36.8780 N   0  0  0  0  0  0  0  0  0  0  0  0
   39.3680   22.8820   37.7710 C   0  0  0  0  0  0  0  0  0  0  0  0
   38.0930   23.1810   37.4180 N   0  0  0  0  0  0  0  0  0  0  0  0
   36.8130   23.8470   35.8630 H   0  0  0  0  0  0  0  0  0  0  0  0
   40.9530   23.5260   34.8770 H   0  0  0  0  0  0  0  0  0  0  0  0
   39.6070   22.5410   38.7720 H   0  0  0  0  0  0  0  0  0  0  0  0
   38.0090   26.5910   34.4130 N   0  0  0  0  0  0  0  0  0  0  0  0
   39.0440   27.0740   35.2760 C   0  0  0  0  0  0  0  0  0  0  0  0
   40.2750   26.9700   34.7930 N   0  0  0  0  0  0  0  0  0  0  0  0
   38.6650   27.6090   36.5400 N   0  0  0  0  0  0  0  0  0  0  0  0
   41.0110   27.3360   35.4300 H   0  0  0  0  0  0  0  0  0  0  0  0
   37.0790   27.1020   34.3700 H   0  0  0  0  0  0  0  0  0  0  0  0
   38.6150   28.6510   36.3990 H   0  0  0  0  0  0  0  0  0  0  0  0
   38.5130   26.9310   37.3280 H   0  0  0  0  0  0  0  0  0  0  0  0
   37.5900   26.4230   31.3310 N   0  0  0  0  0  0  0  0  0  0  0  0
   36.3840   27.0320   31.1110 C   0  0  0  0  0  0  0  0  0  0  0  0
   36.6000   27.9710   30.1080 C   0  0  0  0  0  0  0  0  0  0  0  0
   37.8860   27.9160   29.7530 N   0  0  0  0  0  0  0  0  0  0  0  0
   38.5210   26.9580   30.5030 C   0  0  0  0  0  0  0  0  0  0  0  0
   35.5580   26.6740   31.7300 H   0  0  0  0  0  0  0  0  0  0  0  0
   35.7210   28.5330   29.8290 H   0  0  0  0  0  0  0  0  0  0  0  0
   39.9580   26.7620   30.2400 C   0  0  0  0  0  0  0  0  0  0  0  0
   40.2360   25.4230   29.5390 C   0  0  0  0  0  0  0  0  0  0  0  0
   40.5040   24.6740   30.3020 H   0  0  0  0  0  0  0  0  0  0  0  0
   41.0590   25.5020   28.8210 H   0  0  0  0  0  0  0  0  0  0  0  0
   39.3270   25.0830   28.9810 H   0  0  0  0  0  0  0  0  0  0  0  0
   40.8530   26.7930   31.4170 C   0  0  0  0  0  0  0  0  0  0  0  0
   41.8850   26.7130   31.0260 H   0  0  0  0  0  0  0  0  0  0  0  0
   40.7860   27.7770   31.9380 H   0  0  0  0  0  0  0  0  0  0  0  0
   40.6780   25.9220   32.0430 H   0  0  0  0  0  0  0  0  0  0  0  0
   40.3600   27.7920   29.1770 C   0  0  0  0  0  0  0  0  0  0  0  0
   41.1990   27.4400   28.5620 H   0  0  0  0  0  0  0  0  0  0  0  0
   39.4770   27.9940   28.5350 H   0  0  0  0  0  0  0  0  0  0  0  0
   40.7340   28.9860   29.8070 O   0  0  0  0  0  0  0  0  0  0  0  0
   41.6630   28.9020   30.1880 H   0  0  0  0  0  0  0  0  0  0  0  0
  1  8  1  0  0  0  0
  2  1  1  0  0  0  0
  3  4  1  0  0  0  0
  3  2  2  0  0  0  0
  4  5  2  0  0  0  0
  5  1  1  0  0  0  0
  5 16  1  0  0  0  0
  6  3  1  0  0  0  0
  7 12  1  0  0  0  0
  8  9  1  0  0  0  0
  8  7  2  0  0  0  0
  9 10  2  0  0  0  0
 10 11  1  0  0  0  0
 11 15  1  0  0  0  0
 12 11  2  0  0  0  0
 13  7  1  0  0  0  0
 14  9  1  0  0  0  0
 16 17  1  0  0  0  0
 17 19  1  0  0  0  0
 18 17  2  0  0  0  0
 18 20  1  0  0  0  0
 19 23  1  0  0  0  0
 21 16  1  0  0  0  0
 22 19  1  0  0  0  0
 24  4  1  0  0  0  0
 25 24  1  0  0  0  0
 25 29  1  0  0  0  0
 26 25  2  0  0  0  0
 27 26  1  0  0  0  0
 27 28  2  0  0  0  0
 28 24  1  0  0  0  0
 30 26  1  0  0  0  0
 31 28  1  0  0  0  0
 31 36  1  0  0  0  0
 32 31  1  0  0  0  0
 32 33  1  0  0  0  0
 34 32  1  0  0  0  0
 35 32  1  0  0  0  0
 36 38  1  0  0  0  0
 36 39  1  0  0  0  0
 37 36  1  0  0  0  0
 40 43  1  0  0  0  0
 40 31  1  0  0  0  0
 41 40  1  0  0  0  0
 42 40  1  0  0  0  0
 43 44  1  0  0  0  0
M  END
>  <minimizedAffinity>
-4.66301584

>  <minimizedRMSD>
0.502116263

$$$$
