REMARK  Name = 
REMARK  4 active torsions:
REMARK  status: ('A' for Active; 'I' for Inactive)
REMARK    1  A    between atoms: C_1  and  C_6
REMARK    2  A    between atoms: N_5  and  C_12
REMARK    3  A    between atoms: C_14  and  C_15
REMARK    4  A    between atoms: C_14  and  O_27
REMARK                            x       y       z     vdW  Elec       q    Type
REMARK                         _______ _______ _______ _____ _____    ______ ____
ROOT
ATOM      1  C   UNL     1      37.866  23.700  33.501  0.00  0.00    +0.000 A 
ATOM      2  C   UNL     1      37.459  22.656  32.672  0.00  0.00    +0.000 A 
ATOM      3  N   UNL     1      37.484  21.565  33.486  0.00  0.00    +0.000 NA
ATOM      4  C   UNL     1      37.878  21.967  34.692  0.00  0.00    +0.000 A 
ATOM      5  N   UNL     1      38.117  23.274  34.728  0.00  0.00    +0.000 N 
ATOM      6  H   UNL     1      37.184  22.708  31.610  0.00  0.00    +0.000 HD
ATOM      7  H   UNL     1      37.969  21.245  35.510  0.00  0.00    +0.000 HD
ENDROOT
BRANCH   1   8
ATOM      8  C   UNL     1      38.012  25.084  33.077  0.00  0.00    +0.000 A 
ATOM      9  C   UNL     1      39.295  25.583  32.769  0.00  0.00    +0.000 A 
ATOM     10  C   UNL     1      39.392  26.930  32.357  0.00  0.00    +0.000 A 
ATOM     11  N   UNL     1      38.244  27.652  32.286  0.00  0.00    +0.000 NA
ATOM     12  C   UNL     1      37.031  27.132  32.591  0.00  0.00    +0.000 A 
ATOM     13  N   UNL     1      36.911  25.850  32.987  0.00  0.00    +0.000 NA
ATOM     14  H   UNL     1      40.168  24.957  32.846  0.00  0.00    +0.000 HD
ATOM     15  H   UNL     1      40.367  27.289  32.129  0.00  0.00    +0.000 HD
ATOM     16  H   UNL     1      36.219  27.835  32.484  0.00  0.00    +0.000 HD
ENDBRANCH   1   8
BRANCH   5  17
ATOM     17  C   UNL     1      38.540  23.951  35.900  0.00  0.00    +0.000 C 
ATOM     18  C   UNL     1      38.073  25.229  36.364  0.00  0.00    +0.000 C 
ATOM     19  C   UNL     1      37.556  23.915  37.028  0.00  0.00    +0.000 C 
ATOM     20  H   UNL     1      39.627  23.708  36.179  0.00  0.00    +0.000 HD
ATOM     21  H   UNL     1      37.285  25.784  35.830  0.00  0.00    +0.000 HD
ATOM     22  H   UNL     1      38.683  25.891  37.000  0.00  0.00    +0.000 HD
BRANCH  19  23
ATOM     23  C   UNL     1      38.117  23.765  38.426  0.00  0.00    +0.000 C 
ATOM     24  F   UNL     1      37.520  22.700  39.065  0.00  0.00    +0.000 F 
ATOM     25  F   UNL     1      39.513  23.346  38.306  0.00  0.00    +0.000 F 
ATOM     26  F   UNL     1      38.137  24.899  39.142  0.00  0.00    +0.000 F 
ENDBRANCH  19  23
BRANCH  19  27
ATOM     27  O   UNL     1      36.154  23.942  36.955  0.00  0.00    +0.000 OA
ATOM     28  H   UNL     1      35.898  23.049  36.560  0.00  0.00    +0.000 HD
ENDBRANCH  19  27
ENDBRANCH   5  17
TORSDOF 4
