
 OpenBabel03262519473D

 46 50  0  0  1  0  0  0  0  0999 V2000
   37.5830   25.3340   33.0590 N   0  0  0  0  0  0  0  0  0  0  0  0
   37.1430   24.1810   32.5380 C   0  0  0  0  0  0  0  0  0  0  0  0
   36.1320   24.3310   31.6220 C   0  0  0  0  0  0  0  0  0  0  0  0
   35.9350   25.6510   31.5720 N   0  0  0  0  0  0  0  0  0  0  0  0
   36.8060   26.2490   32.4340 C   0  0  0  0  0  0  0  0  0  0  0  0
   37.5790   23.2140   32.8430 H   0  0  0  0  0  0  0  0  0  0  0  0
   35.6480   23.5230   31.0960 H   0  0  0  0  0  0  0  0  0  0  0  0
   36.8120   27.7550   32.5420 C   0  0  1  0  0  0  0  0  0  0  0  0
   36.3630   28.4990   31.3390 C   0  0  0  0  0  0  0  0  0  0  0  0
   35.4620   28.4440   32.5280 C   0  0  2  0  0  0  0  0  0  0  0  0
   37.5350   28.1360   33.2860 H   0  0  0  0  0  0  0  0  0  0  0  0
   36.0320   27.9170   30.4540 H   0  0  0  0  0  0  0  0  0  0  0  0
   37.0050   29.3500   31.0870 H   0  0  0  0  0  0  0  0  0  0  0  0
   34.5780   27.8130   32.4680 H   0  0  0  0  0  0  0  0  0  0  0  0
   35.3330   29.6580   33.3100 N   0  0  0  0  0  0  0  0  0  0  0  0
   34.7160   29.7420   34.5230 C   0  0  0  0  0  0  0  0  0  0  0  0
   34.7640   31.0190   34.9940 N   0  0  0  0  0  0  0  0  0  0  0  0
   35.4200   31.7750   34.0780 C   0  0  0  0  0  0  0  0  0  0  0  0
   35.7610   33.1070   34.0130 C   0  0  0  0  0  0  0  0  0  0  0  0
   35.4580   33.8970   34.9360 O   0  0  0  0  0  0  0  0  0  0  0  0
   36.4380   33.5830   32.9310 N   0  0  0  0  0  0  0  0  0  0  0  0
   36.7580   32.7160   31.9390 C   0  0  0  0  0  0  0  0  0  0  0  0
   37.4700   33.2520   30.8200 N   0  0  0  0  0  0  0  0  0  0  0  0
   36.4140   31.4180   32.0230 N   0  0  0  0  0  0  0  0  0  0  0  0
   35.7490   30.9070   33.0670 C   0  0  0  0  0  0  0  0  0  0  0  0
   36.6730   34.5930   32.9280 H   0  0  0  0  0  0  0  0  0  0  0  0
   38.1350   34.0480   30.9120 H   0  0  0  0  0  0  0  0  0  0  0  0
   37.4290   32.9440   29.8150 H   0  0  0  0  0  0  0  0  0  0  0  0
   38.5600   25.6910   34.0120 C   0  0  0  0  0  0  0  0  0  0  0  0
   39.3880   24.9370   33.9830 H   0  0  0  0  0  0  0  0  0  0  0  0
   39.0280   26.6740   33.7570 H   0  0  0  0  0  0  0  0  0  0  0  0
   38.0440   25.7390   35.4020 C   0  0  1  0  0  0  0  0  0  0  0  0
   36.9270   25.5650   35.3900 H   0  0  0  0  0  0  0  0  0  0  0  0
   38.6480   23.4220   38.3370 C   0  0  0  0  0  0  0  0  0  0  0  0
   38.0420   24.4370   37.5820 C   0  0  0  0  0  0  0  0  0  0  0  0
   38.6110   24.7030   36.2930 C   0  0  0  0  0  0  0  0  0  0  0  0
   39.7030   23.9690   35.8610 N   0  0  0  0  0  0  0  0  0  0  0  0
   40.2410   23.0140   36.6230 C   0  0  0  0  0  0  0  0  0  0  0  0
   39.7110   22.7350   37.8740 N   0  0  0  0  0  0  0  0  0  0  0  0
   38.2060   23.2360   39.3040 H   0  0  0  0  0  0  0  0  0  0  0  0
   37.2020   25.0200   37.8800 H   0  0  0  0  0  0  0  0  0  0  0  0
   41.0930   22.4350   36.2980 H   0  0  0  0  0  0  0  0  0  0  0  0
   38.2570   27.1240   36.0070 C   0  0  0  0  0  0  0  0  0  0  0  0
   39.1750   27.0540   36.6560 H   0  0  0  0  0  0  0  0  0  0  0  0
   37.4190   27.3270   36.7060 H   0  0  0  0  0  0  0  0  0  0  0  0
   38.4110   27.8850   35.2380 H   0  0  0  0  0  0  0  0  0  0  0  0
  1 29  1  0  0  0  0
  2  6  1  0  0  0  0
  2  1  1  0  0  0  0
  3  2  2  0  0  0  0
  4  3  1  0  0  0  0
  4  5  2  0  0  0  0
  5  8  1  0  0  0  0
  5  1  1  0  0  0  0
  7  3  1  0  0  0  0
  8 11  1  1  0  0  0
  9 10  1  0  0  0  0
  9  8  1  0  0  0  0
 10 14  1  6  0  0  0
 10  8  1  0  0  0  0
 10 15  1  0  0  0  0
 12  9  1  0  0  0  0
 13  9  1  0  0  0  0
 15 16  1  0  0  0  0
 16 17  2  0  0  0  0
 18 17  1  0  0  0  0
 19 18  1  0  0  0  0
 19 20  2  0  0  0  0
 21 19  1  0  0  0  0
 22 24  2  0  0  0  0
 22 21  1  0  0  0  0
 23 27  1  0  0  0  0
 23 22  1  0  0  0  0
 24 25  1  0  0  0  0
 25 15  1  0  0  0  0
 25 18  2  0  0  0  0
 26 21  1  0  0  0  0
 28 23  1  0  0  0  0
 29 32  1  0  0  0  0
 30 29  1  0  0  0  0
 31 29  1  0  0  0  0
 32 33  1  6  0  0  0
 32 43  1  0  0  0  0
 32 36  1  0  0  0  0
 34 40  1  0  0  0  0
 35 41  1  0  0  0  0
 35 34  2  0  0  0  0
 36 35  1  0  0  0  0
 37 36  2  0  0  0  0
 37 38  1  0  0  0  0
 38 39  2  0  0  0  0
 39 34  1  0  0  0  0
 42 38  1  0  0  0  0
 43 44  1  0  0  0  0
 43 45  1  0  0  0  0
 46 43  1  0  0  0  0
M  END
>  <minimizedAffinity>
-5.8580265

>  <minimizedRMSD>
1.2965399

$$$$
