
 OpenBabel03262518503D

 29 31  0  0  0  0  0  0  0  0999 V2000
   38.7770   21.4610   31.9410 C   0  0  0  0  0  0  0  0  0  0  0  0
   37.7990   21.0240   32.8100 C   0  0  0  0  0  0  0  0  0  0  0  0
   37.8200   21.4480   34.1210 C   0  0  0  0  0  0  0  0  0  0  0  0
   38.7790   22.2940   34.5970 C   0  0  0  0  0  0  0  0  0  0  0  0
   39.7710   22.7360   33.7070 C   0  0  0  0  0  0  0  0  0  0  0  0
   39.7810   22.3310   32.3820 C   0  0  0  0  0  0  0  0  0  0  0  0
   37.0550   21.1050   34.8000 H   0  0  0  0  0  0  0  0  0  0  0  0
   40.5390   23.4070   34.0710 H   0  0  0  0  0  0  0  0  0  0  0  0
   40.5670   22.7000   31.7370 H   0  0  0  0  0  0  0  0  0  0  0  0
   39.7080   22.9520   38.0930 C   0  0  0  0  0  0  0  0  0  0  0  0
   38.6320   23.6810   38.5690 C   0  0  0  0  0  0  0  0  0  0  0  0
   37.6020   23.9380   37.6850 C   0  0  0  0  0  0  0  0  0  0  0  0
   37.6870   23.4710   36.4110 N   0  0  0  0  0  0  0  0  0  0  0  0
   38.7870   22.7490   35.9940 C   0  0  0  0  0  0  0  0  0  0  0  0
   39.7760   22.4940   36.8160 N   0  0  0  0  0  0  0  0  0  0  0  0
   40.5100   22.7580   38.7990 H   0  0  0  0  0  0  0  0  0  0  0  0
   38.5410   24.0610   39.5740 H   0  0  0  0  0  0  0  0  0  0  0  0
   36.6900   24.4990   37.9200 H   0  0  0  0  0  0  0  0  0  0  0  0
   38.8730   20.8090   30.3930 S   0  0  0  0  0  0  0  0  0  0  0  0
   39.0280   21.9730   29.3660 O   0  0  0  0  0  0  0  0  0  0  0  0
   40.0360   19.8910   30.3580 O   0  0  0  0  0  0  0  0  0  0  0  0
   37.8050   19.8410   29.5500 C   0  0  0  0  0  0  0  0  0  0  0  0
   38.0350   19.2350   28.1470 C   0  0  0  0  0  0  0  0  0  0  0  0
   38.3410   18.4140   29.2960 C   0  0  0  0  0  0  0  0  0  0  0  0
   36.4670   19.9600   32.2890 S   0  0  0  0  0  0  0  0  0  0  0  0
   35.0040   20.8930   31.8270 C   0  0  0  0  0  0  0  0  0  0  0  0
   33.8640   20.1400   31.8820 F   0  0  0  0  0  0  0  0  0  0  0  0
   34.8300   21.8870   32.7870 F   0  0  0  0  0  0  0  0  0  0  0  0
   35.1730   21.5520   30.6430 F   0  0  0  0  0  0  0  0  0  0  0  0
  1  6  2  0  0  0  0
  1  2  1  0  0  0  0
  2  3  2  0  0  0  0
  3  4  1  0  0  0  0
  3  7  1  0  0  0  0
  4 14  1  0  0  0  0
  5  8  1  0  0  0  0
  5  4  2  0  0  0  0
  6  5  1  0  0  0  0
  9  6  1  0  0  0  0
 10 11  1  0  0  0  0
 10 16  1  0  0  0  0
 11 17  1  0  0  0  0
 12 18  1  0  0  0  0
 12 11  2  0  0  0  0
 13 12  1  0  0  0  0
 14 13  2  0  0  0  0
 14 15  1  0  0  0  0
 15 10  2  0  0  0  0
 19  1  1  0  0  0  0
 20 19  2  0  0  0  0
 21 19  2  0  0  0  0
 22 19  1  0  0  0  0
 23 24  1  0  0  0  0
 23 22  1  0  0  0  0
 24 22  1  0  0  0  0
 25  2  1  0  0  0  0
 26 27  1  0  0  0  0
 26 25  1  0  0  0  0
 26 28  1  0  0  0  0
 29 26  1  0  0  0  0
M  END
>  <minimizedAffinity>
-4.40284061

>  <minimizedRMSD>
0.797796011

$$$$
