
     RDKit          3D

 47 51  0  0  0  0  0  0  0  0999 V2000
   38.0880   25.7656   35.4183 C   0  0  1  0  0  0  0  0  0  0  0  0
   38.6347   23.3755   38.3040 C   0  0  0  0  0  0  0  0  0  0  0  0
   38.0427   24.4085   37.5628 C   0  0  0  0  0  0  0  0  0  0  0  0
   38.6376   24.7084   36.2927 C   0  0  0  0  0  0  0  0  0  0  0  0
   39.7392   23.9853   35.8655 N   0  0  0  0  0  0  0  0  0  0  0  0
   40.2620   23.0109   36.6134 C   0  0  0  0  0  0  0  0  0  0  0  0
   39.7071   22.7004   37.8449 N   0  0  0  0  0  0  0  0  0  0  0  0
   38.3417   27.1391   36.0328 C   0  0  0  0  0  0  0  0  0  0  0  0
   38.5882   25.7181   34.0223 C   0  0  0  0  0  0  0  0  0  0  0  0
   37.5840   25.4417   33.0714 N   0  0  0  0  0  0  0  0  0  0  0  0
   37.0553   24.3288   32.5447 C   0  0  0  0  0  0  0  0  0  0  0  0
   36.0553   24.5616   31.6339 C   0  0  0  0  0  0  0  0  0  0  0  0
   35.9585   25.8926   31.5932 N   0  0  0  0  0  0  0  0  0  0  0  0
   36.8761   26.4176   32.4549 C   0  0  0  0  0  0  0  0  0  0  0  0
   36.9967   27.9181   32.5716 C   0  0  1  0  0  0  0  0  0  0  0  0
   35.8385   28.7079   32.0847 C   0  0  0  0  0  0  0  0  0  0  0  0
   36.0684   28.6009   33.5560 C   0  0  2  0  0  0  0  0  0  0  0  0
   36.9668   25.6197   35.4157 H   0  0  0  0  0  0  0  0  0  0  0  0
   38.1743   23.1638   39.2565 H   0  0  0  0  0  0  0  0  0  0  0  0
   37.1968   24.9842   37.8594 H   0  0  0  0  0  0  0  0  0  0  0  0
   41.1211   22.4407   36.2897 H   0  0  0  0  0  0  0  0  0  0  0  0
   39.2638   27.0402   36.6717 H   0  0  0  0  0  0  0  0  0  0  0  0
   37.5173   27.3569   36.7430 H   0  0  0  0  0  0  0  0  0  0  0  0
   38.5067   27.9033   35.2689 H   0  0  0  0  0  0  0  0  0  0  0  0
   39.3686   24.9162   33.9685 H   0  0  0  0  0  0  0  0  0  0  0  0
   39.1133   26.6762   33.7838 H   0  0  0  0  0  0  0  0  0  0  0  0
   37.4180   23.3300   32.8416 H   0  0  0  0  0  0  0  0  0  0  0  0
   35.5094   23.7963   31.1045 H   0  0  0  0  0  0  0  0  0  0  0  0
   38.0441   28.2722   32.5799 H   0  0  0  0  0  0  0  0  0  0  0  0
   34.9578   28.1614   31.6918 H   0  0  0  0  0  0  0  0  0  0  0  0
   36.1249   29.5709   31.4750 H   0  0  0  0  0  0  0  0  0  0  0  0
   35.3950   27.9689   34.1321 H   0  0  0  0  0  0  0  0  0  0  0  0
   36.5726   29.7822   34.2288 N   0  0  0  0  0  0  0  0  0  0  0  0
   37.8908   30.0408   34.4687 C   0  0  0  0  0  0  0  0  0  0  0  0
   38.0315   31.2288   35.1173 N   0  0  0  0  0  0  0  0  0  0  0  0
   36.7929   31.7505   35.3024 C   0  0  0  0  0  0  0  0  0  0  0  0
   36.3252   32.9069   35.8873 C   0  0  0  0  0  0  0  0  0  0  0  0
   37.1131   33.7377   36.3938 O   0  0  0  0  0  0  0  0  0  0  0  0
   34.9877   33.1583   35.9198 N   0  0  0  0  0  0  0  0  0  0  0  0
   34.1479   32.2486   35.3671 C   0  0  0  0  0  0  0  0  0  0  0  0
   32.7505   32.5467   35.4199 N   0  0  0  0  0  0  0  0  0  0  0  0
   34.6268   31.1255   34.8008 N   0  0  0  0  0  0  0  0  0  0  0  0
   35.9336   30.8379   34.7466 C   0  0  0  0  0  0  0  0  0  0  0  0
   38.7418   29.4023   34.1912 H   0  0  0  0  0  0  0  0  0  0  0  0
   34.6833   34.0408   36.3702 H   0  0  0  0  0  0  0  0  0  0  0  0
   32.3871   33.5241   35.3935 H   0  0  0  0  0  0  0  0  0  0  0  0
   31.9435   31.8763   35.4882 H   0  0  0  0  0  0  0  0  0  0  0  0
  1  8  1  0
  1  4  1  0
  3  2  2  0
  4  3  1  0
  5  4  2  0
  5  6  1  0
  6  7  2  0
  7  2  1  0
  9  1  1  0
 10  9  1  0
 11 10  1  0
 12 11  2  0
 13 12  1  0
 13 14  2  0
 14 15  1  0
 14 10  1  0
 15 17  1  0
 16 15  1  0
 16 17  1  0
  1 18  1  6
  2 19  1  0
  3 20  1  0
  6 21  1  0
  8 22  1  0
  8 23  1  0
  8 24  1  0
  9 25  1  0
  9 26  1  0
 11 27  1  0
 12 28  1  0
 15 29  1  6
 16 30  1  0
 16 31  1  0
 17 32  1  1
 33 34  1  0
 34 35  2  0
 35 36  1  0
 36 37  1  0
 37 38  2  0
 37 39  1  0
 39 40  1  0
 40 41  1  0
 40 42  2  0
 42 43  1  0
 43 33  1  0
 43 36  2  0
 34 44  1  0
 39 45  1  0
 41 46  1  0
 41 47  1  0
 17 33  1  0
M  ISO  8  18   8  19  14  20  14  21  14  22   8  23   8  24   8  25   8
M  ISO  7  26   8  27  14  28  14  29  13  30  13  31  13  32  13
M  END
>  <DihAtoms>  (1) 
14,16,32,33

>  <DihDeg>  (1) 
-131.67435105667496

$$$$
