
 OpenBabel03262516023D

 40 42  0  0  1  0  0  0  0  0999 V2000
   38.1360   23.9130   35.6480 C   0  0  0  0  0  0  0  0  0  0  0  0
   38.1220   24.6350   36.8330 C   0  0  0  0  0  0  0  0  0  0  0  0
   38.0480   26.0310   36.7450 C   0  0  0  0  0  0  0  0  0  0  0  0
   37.9960   26.6040   35.5160 N   0  0  0  0  0  0  0  0  0  0  0  0
   38.0120   25.8860   34.4030 C   0  0  0  0  0  0  0  0  0  0  0  0
   38.0800   24.5640   34.4640 N   0  0  0  0  0  0  0  0  0  0  0  0
   37.9440   26.5720   33.1580 N   0  0  0  0  0  0  0  0  0  0  0  0
   38.5990   26.0030   32.0200 C   0  0  0  0  0  0  0  0  0  0  0  0
   38.8850   27.1330   31.0670 C   0  0  0  0  0  0  0  0  0  0  0  0
   37.6780   27.8790   30.6390 C   0  0  0  0  0  0  0  0  0  0  0  0
   36.6540   28.1060   31.7110 C   0  0  0  0  0  0  0  0  0  0  0  0
   37.2170   27.8090   33.0570 C   0  0  1  0  0  0  0  0  0  0  0  0
   38.0380   26.5880   37.6680 H   0  0  0  0  0  0  0  0  0  0  0  0
   39.5500   25.4900   32.2530 H   0  0  0  0  0  0  0  0  0  0  0  0
   37.9530   25.2540   31.5190 H   0  0  0  0  0  0  0  0  0  0  0  0
   39.5420   27.8530   31.6340 H   0  0  0  0  0  0  0  0  0  0  0  0
   39.4160   26.7710   30.1620 H   0  0  0  0  0  0  0  0  0  0  0  0
   38.0100   28.8640   30.2570 H   0  0  0  0  0  0  0  0  0  0  0  0
   37.1500   27.4120   29.7600 H   0  0  0  0  0  0  0  0  0  0  0  0
   36.3170   29.1620   31.6880 H   0  0  0  0  0  0  0  0  0  0  0  0
   35.7500   27.4800   31.5480 H   0  0  0  0  0  0  0  0  0  0  0  0
   37.9830   28.6160   33.2830 H   0  0  0  0  0  0  0  0  0  0  0  0
   38.1800   23.9850   38.1550 C   0  0  0  0  0  0  0  0  0  0  0  0
   39.4110   23.4530   38.3170 F   0  0  0  0  0  0  0  0  0  0  0  0
   37.2400   23.0030   38.3320 F   0  0  0  0  0  0  0  0  0  0  0  0
   38.0540   24.9540   39.1730 F   0  0  0  0  0  0  0  0  0  0  0  0
   38.2100   22.4340   35.5050 C   0  0  0  0  0  0  0  0  0  0  0  0
   38.3330   22.0590   34.1770 F   0  0  0  0  0  0  0  0  0  0  0  0
   39.2870   21.9290   36.2270 F   0  0  0  0  0  0  0  0  0  0  0  0
   37.1440   21.7700   36.0120 F   0  0  0  0  0  0  0  0  0  0  0  0
   36.1560   27.9780   34.1010 C   0  0  0  0  0  0  0  0  0  0  0  0
   35.1740   27.5630   33.8360 H   0  0  0  0  0  0  0  0  0  0  0  0
   36.4880   27.6850   35.1440 H   0  0  0  0  0  0  0  0  0  0  0  0
   35.9760   29.4750   34.3130 C   0  0  0  0  0  0  0  0  0  0  0  0
   35.5040   30.3470   33.3230 C   0  0  0  0  0  0  0  0  0  0  0  0
   35.3840   31.6840   33.6400 C   0  0  0  0  0  0  0  0  0  0  0  0
   35.7050   32.1990   34.8790 C   0  0  0  0  0  0  0  0  0  0  0  0
   35.5800   33.2680   35.0420 H   0  0  0  0  0  0  0  0  0  0  0  0
   36.1650   31.3030   35.8180 C   0  0  0  0  0  0  0  0  0  0  0  0
   36.2920   29.9930   35.5390 N   0  0  0  0  0  0  0  0  0  0  0  0
  1  2  1  0  0  0  0
  2 23  1  0  0  0  0
  3  2  2  0  0  0  0
  3 13  1  0  0  0  0
  4  3  1  0  0  0  0
  5  6  1  0  0  0  0
  5  4  2  0  0  0  0
  6  1  2  0  0  0  0
  7  5  1  0  0  0  0
  8 14  1  0  0  0  0
  8  7  1  0  0  0  0
  9 16  1  0  0  0  0
  9  8  1  0  0  0  0
 10  9  1  0  0  0  0
 10 11  1  0  0  0  0
 11 12  1  0  0  0  0
 12  7  1  0  0  0  0
 12 22  1  1  0  0  0
 12 31  1  0  0  0  0
 15  8  1  0  0  0  0
 17  9  1  0  0  0  0
 18 10  1  0  0  0  0
 19 10  1  0  0  0  0
 20 11  1  0  0  0  0
 21 11  1  0  0  0  0
 23 24  1  0  0  0  0
 23 25  1  0  0  0  0
 23 26  1  0  0  0  0
 27  1  1  0  0  0  0
 27 30  1  0  0  0  0
 27 29  1  0  0  0  0
 28 27  1  0  0  0  0
 31 34  1  0  0  0  0
 31 33  1  0  0  0  0
 32 31  1  0  0  0  0
 34 40  1  0  0  0  0
 35 36  1  0  0  0  0
 35 34  2  0  0  0  0
 36 37  2  0  0  0  0
 37 38  1  0  0  0  0
 37 39  1  0  0  0  0
 40 39  2  0  0  0  0
M  END
>  <minimizedAffinity>
-6.35326529

>  <minimizedRMSD>
0.802481532

$$$$
