
 OpenBabel03262519563D

 37 41  0  0  1  0  0  0  0  0999 V2000
   37.4090   21.6210   33.9790 C   0  0  1  0  0  0  0  0  0  0  0  0
   36.2280   21.1810   34.6980 C   0  0  0  0  0  0  0  0  0  0  0  0
   36.1640   21.2180   33.1920 C   0  0  2  0  0  0  0  0  0  0  0  0
   38.2920   20.9550   33.9300 H   0  0  0  0  0  0  0  0  0  0  0  0
   36.3050   20.2080   35.2250 H   0  0  0  0  0  0  0  0  0  0  0  0
   35.5170   21.8810   35.1880 H   0  0  0  0  0  0  0  0  0  0  0  0
   35.5510   21.9910   32.6970 H   0  0  0  0  0  0  0  0  0  0  0  0
   36.0610   19.9290   32.5830 N   0  0  0  0  0  0  0  0  0  0  0  0
   35.3930   18.8130   32.9210 C   0  0  0  0  0  3  0  0  0  0  0  0
   35.6410   17.8530   31.9840 N   0  0  0  0  0  0  0  0  0  0  0  0
   36.4680   18.3690   31.0560 C   0  0  0  0  0  0  0  0  0  0  0  0
   37.0070   17.8010   29.9160 C   0  0  0  0  0  0  0  0  0  0  0  0
   36.7580   16.6060   29.5810 O   0  0  0  0  0  0  0  0  0  0  0  0
   37.8240   18.5200   29.1240 N   0  0  0  0  0  0  0  0  0  0  0  0
   38.0710   19.8010   29.5100 C   0  0  0  0  0  0  0  0  0  0  0  0
   38.9160   20.6240   28.7390 N   0  0  0  0  0  0  0  0  0  0  0  0
   37.5550   20.3720   30.6180 N   0  0  0  0  0  0  0  0  0  0  0  0
   36.7340   19.6850   31.4360 C   0  0  0  0  0  0  0  0  0  0  0  0
   38.2610   18.1450   28.2500 H   0  0  0  0  0  0  0  0  0  0  0  0
   38.5390   20.6460   27.7500 H   0  0  0  0  0  0  0  0  0  0  0  0
   39.7690   21.2080   28.8130 H   0  0  0  0  0  0  0  0  0  0  0  0
   38.1870   23.9490   34.6310 C   0  0  0  0  0  0  0  0  0  0  0  0
   38.3530   25.1720   34.0130 C   0  0  0  0  0  0  0  0  0  0  0  0
   37.9650   24.9380   32.7260 N   0  0  0  0  0  0  0  0  0  0  0  0
   37.6080   23.6750   32.6280 C   0  0  0  0  0  0  0  0  0  0  0  0
   37.7330   23.0230   33.8010 N   0  0  0  0  0  0  0  0  0  0  0  0
   38.6940   26.1130   34.3820 H   0  0  0  0  0  0  0  0  0  0  0  0
   37.2540   23.2250   31.6960 H   0  0  0  0  0  0  0  0  0  0  0  0
   38.4730   23.6840   36.0370 C   0  0  0  0  0  0  0  0  0  0  0  0
   39.6550   23.0430   36.4180 C   0  0  0  0  0  0  0  0  0  0  0  0
   39.9040   22.8020   37.7740 C   0  0  0  0  0  0  0  0  0  0  0  0
   38.9670   23.2110   38.6500 N   0  0  0  0  0  0  0  0  0  0  0  0
   37.8190   23.8320   38.2790 C   0  0  0  0  0  0  0  0  0  0  0  0
   37.5770   24.0670   36.9720 N   0  0  0  0  0  0  0  0  0  0  0  0
   40.3670   22.7390   35.6860 H   0  0  0  0  0  0  0  0  0  0  0  0
   40.8010   22.3120   38.1200 H   0  0  0  0  0  0  0  0  0  0  0  0
   37.0580   24.1660   38.9610 H   0  0  0  0  0  0  0  0  0  0  0  0
  1  4  1  6  0  0  0
  1  2  1  0  0  0  0
  2  6  1  0  0  0  0
  2  5  1  0  0  0  0
  3  7  1  6  0  0  0
  3  1  1  0  0  0  0
  3  2  1  0  0  0  0
  8  9  1  0  0  0  0
  8  3  1  0  0  0  0
 10  9  2  0  0  0  0
 11 18  2  0  0  0  0
 11 10  1  0  0  0  0
 12 11  1  0  0  0  0
 13 12  2  0  0  0  0
 14 15  1  0  0  0  0
 14 12  1  0  0  0  0
 15 17  2  0  0  0  0
 16 21  1  0  0  0  0
 16 15  1  0  0  0  0
 17 18  1  0  0  0  0
 18  8  1  0  0  0  0
 19 14  1  0  0  0  0
 20 16  1  0  0  0  0
 22 29  1  0  0  0  0
 23 27  1  0  0  0  0
 23 22  2  0  0  0  0
 24 23  1  0  0  0  0
 25 24  2  0  0  0  0
 25 26  1  0  0  0  0
 26  1  1  0  0  0  0
 26 22  1  0  0  0  0
 28 25  1  0  0  0  0
 29 30  2  0  0  0  0
 29 34  1  0  0  0  0
 30 31  1  0  0  0  0
 31 36  1  0  0  0  0
 31 32  2  0  0  0  0
 33 32  1  0  0  0  0
 33 37  1  0  0  0  0
 34 33  2  0  0  0  0
 35 30  1  0  0  0  0
M  END
>  <minimizedAffinity>
-5.26961327

>  <minimizedRMSD>
2.38635707

$$$$
