REMARK  Name = 
REMARK  2 active torsions:
REMARK  status: ('A' for Active; 'I' for Inactive)
REMARK    1  A    between atoms: C_3  and  C_7
REMARK    2  A    between atoms: C_7  and  C_13
REMARK                            x       y       z     vdW  Elec       q    Type
REMARK                         _______ _______ _______ _____ _____    ______ ____
ROOT
ATOM      1  C   UNL     1      37.849  24.361  38.646  0.00  0.00    +0.000 C 
ATOM      2  H   UNL     1      36.778  24.214  38.376  0.00  0.00    +0.000 HD
ATOM      3  H   UNL     1      38.066  24.100  39.698  0.00  0.00    +0.000 HD
ENDROOT
BRANCH   1   6
ATOM      4  C   UNL     1      40.605  22.157  37.268  0.00  0.00    +0.000 A 
ATOM      5  C   UNL     1      39.907  22.991  38.146  0.00  0.00    +0.000 A 
ATOM      6  C   UNL     1      38.648  23.466  37.755  0.00  0.00    +0.000 A 
ATOM      7  N   UNL     1      38.171  23.084  36.530  0.00  0.00    +0.000 NA
ATOM      8  C   UNL     1      38.883  22.274  35.713  0.00  0.00    +0.000 A 
ATOM      9  N   UNL     1      40.091  21.817  36.085  0.00  0.00    +0.000 NA
ATOM     10  H   UNL     1      41.581  21.763  37.521  0.00  0.00    +0.000 HD
ATOM     11  H   UNL     1      40.324  23.266  39.105  0.00  0.00    +0.000 HD
ATOM     12  H   UNL     1      38.515  21.965  34.740  0.00  0.00    +0.000 HD
ENDBRANCH   1   6
BRANCH   1  13
ATOM     13  C   UNL     1      38.208  25.770  38.334  0.00  0.00    +0.000 A 
ATOM     14  C   UNL     1      38.462  26.728  39.310  0.00  0.00    +0.000 A 
ATOM     15  C   UNL     1      38.796  28.036  38.967  0.00  0.00    +0.000 A 
ATOM     16  C   UNL     1      38.865  28.346  37.608  0.00  0.00    +0.000 A 
ATOM     17  H   UNL     1      39.125  29.367  37.294  0.00  0.00    +0.000 HD
ATOM     18  C   UNL     1      38.614  27.398  36.643  0.00  0.00    +0.000 A 
ATOM     19  N   UNL     1      38.298  26.159  37.050  0.00  0.00    +0.000 NA
ENDBRANCH   1  13
TORSDOF 2
