REMARK  Name = 
REMARK  3 active torsions:
REMARK  status: ('A' for Active; 'I' for Inactive)
REMARK    1  A    between atoms: C_1  and  C_6
REMARK    2  A    between atoms: N_5  and  C_12
REMARK    3  A    between atoms: C_14  and  N_24
REMARK                            x       y       z     vdW  Elec       q    Type
REMARK                         _______ _______ _______ _____ _____    ______ ____
ROOT
ATOM      1  C   UNL     1      36.999  21.164  34.391  0.00  0.00    +0.000 C 
ATOM      2  C   UNL     1      35.848  20.964  35.252  0.00  0.00    +0.000 C 
ATOM      3  C   UNL     1      35.659  20.780  33.767  0.00  0.00    +0.000 C 
ATOM      4  H   UNL     1      37.809  20.409  34.387  0.00  0.00    +0.000 HD
ATOM      5  H   UNL     1      35.878  20.079  35.919  0.00  0.00    +0.000 HD
ATOM      6  H   UNL     1      35.250  21.801  35.673  0.00  0.00    +0.000 HD
ATOM      7  H   UNL     1      35.081  21.530  33.200  0.00  0.00    +0.000 HD
ENDROOT
BRANCH   3   8
ATOM      8  N   UNL     1      35.385  19.432  33.379  0.00  0.00    +0.000 N 
ATOM      9  C   UNL     1      35.898  18.251  33.764  0.00  0.00    +0.000 A 
ATOM     10  N   UNL     1      35.272  17.255  33.071  0.00  0.00    +0.000 NA
ATOM     11  C   UNL     1      34.364  17.814  32.250  0.00  0.00    +0.000 A 
ATOM     12  C   UNL     1      33.486  17.235  31.352  0.00  0.00    +0.000 A 
ATOM     13  O   UNL     1      33.430  15.982  31.183  0.00  0.00    +0.000 OA
ATOM     14  N   UNL     1      32.656  18.006  30.625  0.00  0.00    +0.000 N 
ATOM     15  C   UNL     1      32.739  19.349  30.829  0.00  0.00    +0.000 A 
ATOM     16  N   UNL     1      31.907  20.230  30.110  0.00  0.00    +0.000 N 
ATOM     17  N   UNL     1      33.590  19.932  31.700  0.00  0.00    +0.000 NA
ATOM     18  C   UNL     1      34.436  19.195  32.445  0.00  0.00    +0.000 A 
ATOM     19  H   UNL     1      31.971  17.626  29.932  0.00  0.00    +0.000 HD
ATOM     20  H   UNL     1      30.903  19.934  30.268  0.00  0.00    +0.000 HD
ATOM     21  H   UNL     1      31.947  21.058  29.488  0.00  0.00    +0.000 HD
ENDBRANCH   3   8
BRANCH   1  26
ATOM     22  C   UNL     1      38.029  23.474  34.614  0.00  0.00    +0.000 A 
ATOM     23  C   UNL     1      38.262  24.563  33.798  0.00  0.00    +0.000 A 
ATOM     24  N   UNL     1      37.765  24.171  32.589  0.00  0.00    +0.000 NA
ATOM     25  C   UNL     1      37.289  22.951  32.717  0.00  0.00    +0.000 A 
ATOM     26  N   UNL     1      37.436  22.481  33.971  0.00  0.00    +0.000 N 
ATOM     27  H   UNL     1      38.712  25.511  33.991  0.00  0.00    +0.000 HD
ATOM     28  H   UNL     1      36.831  22.399  31.890  0.00  0.00    +0.000 HD
BRANCH  22  29
ATOM     29  C   UNL     1      38.387  23.404  36.027  0.00  0.00    +0.000 A 
ATOM     30  C   UNL     1      39.588  22.814  36.432  0.00  0.00    +0.000 A 
ATOM     31  C   UNL     1      39.906  22.761  37.794  0.00  0.00    +0.000 A 
ATOM     32  N   UNL     1      39.016  23.294  38.651  0.00  0.00    +0.000 NA
ATOM     33  C   UNL     1      37.850  23.866  38.257  0.00  0.00    +0.000 A 
ATOM     34  N   UNL     1      37.541  23.919  36.944  0.00  0.00    +0.000 NA
ATOM     35  H   UNL     1      40.261  22.406  35.713  0.00  0.00    +0.000 HD
ATOM     36  H   UNL     1      40.820  22.317  38.158  0.00  0.00    +0.000 HD
ATOM     37  H   UNL     1      37.126  24.296  38.924  0.00  0.00    +0.000 HD
ENDBRANCH  22  29
ENDBRANCH   1  26
TORSDOF 3
