
 OpenBabel03262517083D

 45 48  0  0  0  0  0  0  0  0999 V2000
   38.0840   23.2090   35.2400 C   0  0  0  0  0  0  0  0  0  0  0  0
   37.5920   22.0200   34.7840 C   0  0  0  0  0  0  0  0  0  0  0  0
   37.2280   21.8430   33.4640 C   0  0  0  0  0  0  0  0  0  0  0  0
   37.3620   22.8860   32.5730 C   0  0  0  0  0  0  0  0  0  0  0  0
   37.8600   24.0640   33.0690 C   0  0  0  0  0  0  0  0  0  0  0  0
   38.2520   24.3130   34.4130 C   0  0  0  0  0  0  0  0  0  0  0  0
   37.4410   21.1290   35.3870 H   0  0  0  0  0  0  0  0  0  0  0  0
   36.8360   20.9180   33.0730 H   0  0  0  0  0  0  0  0  0  0  0  0
   37.0980   22.8010   31.5520 H   0  0  0  0  0  0  0  0  0  0  0  0
   37.9640   24.8820   32.3690 H   0  0  0  0  0  0  0  0  0  0  0  0
   39.5070   22.7070   37.3040 C   0  0  0  0  0  0  0  0  0  0  0  0
   38.4030   23.1940   36.6580 C   0  0  0  0  0  0  0  0  0  0  0  0
   37.6140   23.6900   37.6370 N   0  0  0  0  0  0  0  0  0  0  0  0
   38.2290   23.5010   38.8140 C   0  0  0  0  0  0  0  0  0  0  0  0
   39.3900   22.9020   38.6470 N   0  0  0  0  0  0  0  0  0  0  0  0
   37.9110   23.7650   39.8300 H   0  0  0  0  0  0  0  0  0  0  0  0
   40.1210   22.6050   39.3300 H   0  0  0  0  0  0  0  0  0  0  0  0
   42.6780   20.8260   36.7390 C   0  0  0  0  0  0  0  0  0  0  0  0
   41.6030   21.4190   37.4110 C   0  0  0  0  0  0  0  0  0  0  0  0
   40.6430   22.0720   36.6540 C   0  0  0  0  0  0  0  0  0  0  0  0
   40.8040   22.1010   35.2720 N   0  0  0  0  0  0  0  0  0  0  0  0
   41.8580   21.5150   34.6790 C   0  0  0  0  0  0  0  0  0  0  0  0
   42.7840   20.8850   35.4000 N   0  0  0  0  0  0  0  0  0  0  0  0
   43.4270   20.3160   37.3310 H   0  0  0  0  0  0  0  0  0  0  0  0
   41.5010   21.3810   38.4830 H   0  0  0  0  0  0  0  0  0  0  0  0
   42.0040   21.5580   33.2610 N   0  0  0  0  0  0  0  0  0  0  0  0
   42.7120   22.3360   32.4760 N   0  0  0  0  0  0  0  0  0  0  0  0
   42.5230   21.9870   31.1740 C   0  0  0  0  0  0  0  0  0  0  0  0
   43.0670   22.5730   30.4350 H   0  0  0  0  0  0  0  0  0  0  0  0
   41.6320   20.9180   31.1810 C   0  0  0  0  0  0  0  0  0  0  0  0
   41.3100   20.6560   32.5130 C   0  0  0  0  0  0  0  0  0  0  0  0
   40.6230   19.8450   32.6700 H   0  0  0  0  0  0  0  0  0  0  0  0
   38.7710   25.5610   34.8910 C   0  0  0  0  0  0  0  0  0  0  0  0
   38.5060   26.5360   33.7080 C   0  0  0  0  0  0  0  0  0  0  0  0
   39.2280   26.3820   32.8980 H   0  0  0  0  0  0  0  0  0  0  0  0
   37.4510   26.5610   33.4320 H   0  0  0  0  0  0  0  0  0  0  0  0
   38.7240   27.5800   34.0830 H   0  0  0  0  0  0  0  0  0  0  0  0
   38.3000   26.2580   36.0640 C   0  0  0  0  0  0  0  0  0  0  0  0
   38.3600   27.3660   35.9650 H   0  0  0  0  0  0  0  0  0  0  0  0
   37.2140   26.0830   36.2850 H   0  0  0  0  0  0  0  0  0  0  0  0
   38.9460   26.0610   36.9700 H   0  0  0  0  0  0  0  0  0  0  0  0
   40.2930   25.4510   34.9600 C   0  0  0  0  0  0  0  0  0  0  0  0
   40.6750   24.8970   34.0990 H   0  0  0  0  0  0  0  0  0  0  0  0
   40.6360   25.0110   35.9010 H   0  0  0  0  0  0  0  0  0  0  0  0
   40.6420   26.5120   34.8590 H   0  0  0  0  0  0  0  0  0  0  0  0
  1 12  1  0  0  0  0
  2  1  1  0  0  0  0
  2  7  1  0  0  0  0
  3  2  2  0  0  0  0
  4  5  2  0  0  0  0
  4  3  1  0  0  0  0
  5  6  1  0  0  0  0
  6 33  1  0  0  0  0
  6  1  2  0  0  0  0
  8  3  1  0  0  0  0
  9  4  1  0  0  0  0
 10  5  1  0  0  0  0
 11 15  1  0  0  0  0
 12 11  2  0  0  0  0
 12 13  1  0  0  0  0
 13 14  2  0  0  0  0
 14 16  1  0  0  0  0
 15 14  1  0  0  0  0
 15 17  1  0  0  0  0
 18 24  1  0  0  0  0
 18 19  1  0  0  0  0
 19 25  1  0  0  0  0
 20 11  1  0  0  0  0
 20 19  2  0  0  0  0
 21 20  1  0  0  0  0
 22 21  2  0  0  0  0
 22 23  1  0  0  0  0
 23 18  2  0  0  0  0
 26 22  1  0  0  0  0
 27 26  1  0  0  0  0
 28 30  1  0  0  0  0
 28 27  2  0  0  0  0
 29 28  1  0  0  0  0
 30 31  2  0  0  0  0
 31 32  1  0  0  0  0
 31 26  1  0  0  0  0
 33 42  1  0  0  0  0
 33 38  1  0  0  0  0
 34 37  1  0  0  0  0
 34 33  1  0  0  0  0
 35 34  1  0  0  0  0
 36 34  1  0  0  0  0
 38 40  1  0  0  0  0
 38 41  1  0  0  0  0
 39 38  1  0  0  0  0
 42 44  1  0  0  0  0
 43 42  1  0  0  0  0
 45 42  1  0  0  0  0
M  END
>  <minimizedAffinity>
-5.69909286

>  <minimizedRMSD>
0.0804426894

$$$$
