
 OpenBabel03262519593D

 33 36  0  0  1  0  0  0  0  0999 V2000
   38.4780   26.0790   35.6800 C   0  0  1  0  0  0  0  0  0  0  0  0
   37.2000   25.4510   35.4810 C   0  0  0  0  0  0  0  0  0  0  0  0
   38.4260   24.6090   35.9480 C   0  0  1  0  0  0  0  0  0  0  0  0
   38.5480   26.7510   36.6000 H   0  0  0  0  0  0  0  0  0  0  0  0
   36.3850   25.5350   36.2170 H   0  0  0  0  0  0  0  0  0  0  0  0
   36.8480   25.2140   34.4770 H   0  0  0  0  0  0  0  0  0  0  0  0
   39.2380   26.7320   33.3880 C   0  0  0  0  0  0  0  0  0  0  0  0
   40.4430   27.0790   32.7830 C   0  0  0  0  0  0  0  0  0  0  0  0
   41.3480   27.0050   33.8020 N   0  0  0  0  0  0  0  0  0  0  0  0
   40.6920   26.6410   34.9030 C   0  0  0  0  0  0  0  0  0  0  0  0
   39.3940   26.4670   34.6740 N   0  0  0  0  0  0  0  0  0  0  0  0
   40.5290   27.3350   31.7240 H   0  0  0  0  0  0  0  0  0  0  0  0
   41.2830   26.5380   35.8100 H   0  0  0  0  0  0  0  0  0  0  0  0
   37.9560   26.6750   32.6960 C   0  0  0  0  0  0  0  0  0  0  0  0
   37.1250   27.8160   32.6820 C   0  0  0  0  0  0  0  0  0  0  0  0
   35.8930   27.7070   31.9910 C   0  0  0  0  0  0  0  0  0  0  0  0
   35.6020   26.5220   31.3940 N   0  0  0  0  0  0  0  0  0  0  0  0
   36.4320   25.4560   31.4350 C   0  0  0  0  0  0  0  0  0  0  0  0
   37.6050   25.5250   32.0810 N   0  0  0  0  0  0  0  0  0  0  0  0
   37.4020   28.7180   33.1670 H   0  0  0  0  0  0  0  0  0  0  0  0
   35.2120   28.5370   31.9410 H   0  0  0  0  0  0  0  0  0  0  0  0
   36.0490   24.6000   30.9120 H   0  0  0  0  0  0  0  0  0  0  0  0
   38.5750   23.5270   34.9640 N   0  0  0  0  0  0  0  0  0  0  0  0
   39.8540   23.2550   34.7430 N   0  0  0  0  0  0  0  0  0  0  0  0
   39.9500   22.2490   33.8280 C   0  0  0  0  0  0  0  0  0  0  0  0
   40.7860   21.7320   33.3740 H   0  0  0  0  0  0  0  0  0  0  0  0
   38.6470   21.9130   33.4950 C   0  0  0  0  0  3  0  0  0  0  0  0
   37.7950   22.7250   34.2170 C   0  0  0  0  0  0  0  0  0  0  0  0
   36.7310   22.8820   34.3380 H   0  0  0  0  0  0  0  0  0  0  0  0
   38.2650   24.1770   37.3910 C   0  0  0  0  0  0  0  0  0  0  0  0
   37.2820   23.2130   37.4900 F   0  0  0  0  0  0  0  0  0  0  0  0
   39.4780   23.4720   37.7890 F   0  0  0  0  0  0  0  0  0  0  0  0
   38.1240   25.1920   38.2570 F   0  0  0  0  0  0  0  0  0  0  0  0
  1  3  1  0  0  0  0
  1  4  1  1  0  0  0
  2  1  1  0  0  0  0
  2  3  1  0  0  0  0
  2  5  1  0  0  0  0
  3 30  1  1  0  0  0
  6  2  1  0  0  0  0
  7 11  1  0  0  0  0
  8  7  2  0  0  0  0
  8  9  1  0  0  0  0
  9 10  2  0  0  0  0
 10 13  1  0  0  0  0
 11 10  1  0  0  0  0
 11  1  1  0  0  0  0
 12  8  1  0  0  0  0
 14  7  1  0  0  0  0
 15 14  1  0  0  0  0
 15 20  1  0  0  0  0
 16 15  2  0  0  0  0
 17 18  2  0  0  0  0
 17 16  1  0  0  0  0
 18 19  1  0  0  0  0
 19 14  2  0  0  0  0
 21 16  1  0  0  0  0
 22 18  1  0  0  0  0
 23  3  1  0  0  0  0
 24 23  1  0  0  0  0
 25 24  2  0  0  0  0
 26 25  1  0  0  0  0
 27 25  1  0  0  0  0
 27 28  2  0  0  0  0
 28 29  1  0  0  0  0
 28 23  1  0  0  0  0
 30 31  1  0  0  0  0
 30 32  1  0  0  0  0
 30 33  1  0  0  0  0
M  END
>  <minimizedAffinity>
-4.79553032

>  <minimizedRMSD>
3.70549631

$$$$
