REMARK  Name = 
REMARK  4 active torsions:
REMARK  status: ('A' for Active; 'I' for Inactive)
REMARK    1  A    between atoms: C_1  and  C_6
REMARK    2  A    between atoms: N_5  and  C_12
REMARK    3  A    between atoms: C_14  and  C_15
REMARK    4  A    between atoms: C_14  and  N_27
REMARK                            x       y       z     vdW  Elec       q    Type
REMARK                         _______ _______ _______ _____ _____    ______ ____
ROOT
ATOM      1  C   UNL     1      38.539  23.946  35.899  0.00  0.00    +0.000 C 
ATOM      2  C   UNL     1      38.087  25.230  36.363  0.00  0.00    +0.000 C 
ATOM      3  C   UNL     1      37.559  23.923  37.028  0.00  0.00    +0.000 C 
ATOM      4  H   UNL     1      39.617  23.686  36.171  0.00  0.00    +0.000 HD
ATOM      5  H   UNL     1      38.704  25.868  37.014  0.00  0.00    +0.000 HD
ATOM      6  H   UNL     1      37.334  25.787  35.806  0.00  0.00    +0.000 HD
ENDROOT
BRANCH   1  11
ATOM      7  C   UNL     1      37.871  23.697  33.502  0.00  0.00    +0.000 A 
ATOM      8  C   UNL     1      37.467  22.658  32.667  0.00  0.00    +0.000 A 
ATOM      9  N   UNL     1      37.483  21.564  33.484  0.00  0.00    +0.000 NA
ATOM     10  C   UNL     1      37.870  21.966  34.694  0.00  0.00    +0.000 A 
ATOM     11  N   UNL     1      38.114  23.272  34.730  0.00  0.00    +0.000 N 
ATOM     12  H   UNL     1      37.218  22.800  31.613  0.00  0.00    +0.000 HD
ATOM     13  H   UNL     1      37.933  21.200  35.464  0.00  0.00    +0.000 HD
BRANCH   7  14
ATOM     14  C   UNL     1      38.018  25.084  33.077  0.00  0.00    +0.000 A 
ATOM     15  C   UNL     1      39.302  25.582  32.769  0.00  0.00    +0.000 A 
ATOM     16  C   UNL     1      39.387  26.934  32.357  0.00  0.00    +0.000 A 
ATOM     17  N   UNL     1      38.235  27.651  32.287  0.00  0.00    +0.000 NA
ATOM     18  C   UNL     1      37.026  27.129  32.592  0.00  0.00    +0.000 A 
ATOM     19  N   UNL     1      36.910  25.852  32.986  0.00  0.00    +0.000 NA
ATOM     20  H   UNL     1      40.171  24.977  32.842  0.00  0.00    +0.000 HD
ATOM     21  H   UNL     1      40.334  27.378  32.108  0.00  0.00    +0.000 HD
ATOM     22  H   UNL     1      36.221  27.831  32.483  0.00  0.00    +0.000 HD
ENDBRANCH   7  14
ENDBRANCH   1  11
BRANCH   3  23
ATOM     23  N   UNL     1      36.093  23.978  36.925  0.00  0.00    +0.000 N 
ATOM     24  N   UNL     1      35.693  25.142  36.429  0.00  0.00    +0.000 NA
ATOM     25  C   UNL     1      34.332  25.154  36.350  0.00  0.00    +0.000 A 
ATOM     26  H   UNL     1      33.612  25.887  36.011  0.00  0.00    +0.000 HD
ATOM     27  C   UNL     1      33.913  23.922  36.829  0.00  0.00    +0.000 A 
ATOM     28  C   UNL     1      35.031  23.195  37.186  0.00  0.00    +0.000 A 
ATOM     29  H   UNL     1      35.271  22.223  37.596  0.00  0.00    +0.000 HD
ENDBRANCH   3  23
BRANCH   3  30
ATOM     30  C   UNL     1      38.121  23.765  38.426  0.00  0.00    +0.000 C 
ATOM     31  F   UNL     1      37.511  22.704  39.065  0.00  0.00    +0.000 F 
ATOM     32  F   UNL     1      39.511  23.341  38.308  0.00  0.00    +0.000 F 
ATOM     33  F   UNL     1      38.138  24.899  39.143  0.00  0.00    +0.000 F 
ENDBRANCH   3  30
TORSDOF 4
