
 OpenBabel03262518593D

 35 38  0  0  0  0  0  0  0  0999 V2000
   38.3160   25.7630   34.1000 C   0  0  0  0  0  0  0  0  0  0  0  0
   37.8890   26.4540   34.8170 H   0  0  0  0  0  0  0  0  0  0  0  0
   39.0560   26.4340   33.5380 H   0  0  0  0  0  0  0  0  0  0  0  0
   39.1900   24.7060   34.6040 C   0  0  0  0  0  0  0  0  0  0  0  0
   40.1910   24.1430   33.8360 C   0  0  0  0  0  0  0  0  0  0  0  0
   41.0110   23.1720   34.3290 C   0  0  0  0  0  0  0  0  0  0  0  0
   40.8690   22.7040   35.6380 C   0  0  0  0  0  0  0  0  0  0  0  0
   39.8680   23.2640   36.4140 C   0  0  0  0  0  0  0  0  0  0  0  0
   39.7120   22.8220   37.7120 C   0  0  0  0  0  0  0  0  0  0  0  0
   38.7410   23.3400   38.5300 C   0  0  0  0  0  0  0  0  0  0  0  0
   37.9030   24.3280   38.0370 C   0  0  0  0  0  0  0  0  0  0  0  0
   38.0710   24.7630   36.7290 C   0  0  0  0  0  0  0  0  0  0  0  0
   39.0450   24.2560   35.8830 C   0  0  0  0  0  0  0  0  0  0  0  0
   40.3490   24.4680   32.8060 H   0  0  0  0  0  0  0  0  0  0  0  0
   41.8130   22.6860   33.7860 H   0  0  0  0  0  0  0  0  0  0  0  0
   41.4900   21.9400   36.0750 H   0  0  0  0  0  0  0  0  0  0  0  0
   40.3390   22.0490   38.1560 H   0  0  0  0  0  0  0  0  0  0  0  0
   38.6040   23.0010   39.5640 H   0  0  0  0  0  0  0  0  0  0  0  0
   37.1410   24.7270   38.6920 H   0  0  0  0  0  0  0  0  0  0  0  0
   37.3710   25.5290   36.4310 H   0  0  0  0  0  0  0  0  0  0  0  0
   35.8650   25.8960   31.3650 C   0  0  0  0  0  0  0  0  0  0  0  0
   35.6050   24.5660   31.0720 C   0  0  0  0  0  0  0  0  0  0  0  0
   36.2820   23.5810   31.8350 C   0  0  0  0  0  0  0  0  0  0  0  0
   37.1500   23.9760   32.8120 N   0  0  0  0  0  0  0  0  0  0  0  0
   37.3630   25.2840   33.0490 C   0  0  0  0  0  0  0  0  0  0  0  0
   36.7310   26.2320   32.3390 N   0  0  0  0  0  0  0  0  0  0  0  0
   35.3420   26.6370   30.7760 H   0  0  0  0  0  0  0  0  0  0  0  0
   34.9480   24.1860   30.3320 H   0  0  0  0  0  0  0  0  0  0  0  0
   36.1490   22.1730   31.6860 N   0  0  0  0  0  0  0  0  0  0  0  0
   36.7900   21.2550   30.9790 N   0  0  0  0  0  0  0  0  0  0  0  0
   36.2320   20.0340   31.2240 C   0  0  0  0  0  0  0  0  0  0  0  0
   36.5840   19.1200   30.7580 H   0  0  0  0  0  0  0  0  0  0  0  0
   35.1900   20.2280   32.1380 C   0  0  0  0  0  0  0  0  0  0  0  0
   35.1670   21.5990   32.4090 C   0  0  0  0  0  0  0  0  0  0  0  0
   34.4070   21.9180   33.1080 H   0  0  0  0  0  0  0  0  0  0  0  0
  1  4  1  0  0  0  0
  1  2  1  0  0  0  0
  3  1  1  0  0  0  0
  4 13  1  0  0  0  0
  5  6  1  0  0  0  0
  5  4  2  0  0  0  0
  6  7  2  0  0  0  0
  7 16  1  0  0  0  0
  7  8  1  0  0  0  0
  8  9  1  0  0  0  0
  9 17  1  0  0  0  0
  9 10  2  0  0  0  0
 10 18  1  0  0  0  0
 11 10  1  0  0  0  0
 11 19  1  0  0  0  0
 12 11  2  0  0  0  0
 13  8  2  0  0  0  0
 13 12  1  0  0  0  0
 14  5  1  0  0  0  0
 15  6  1  0  0  0  0
 20 12  1  0  0  0  0
 21 26  1  0  0  0  0
 22 21  2  0  0  0  0
 22 23  1  0  0  0  0
 23 24  2  0  0  0  0
 24 25  1  0  0  0  0
 25  1  1  0  0  0  0
 26 25  2  0  0  0  0
 27 21  1  0  0  0  0
 28 22  1  0  0  0  0
 29 23  1  0  0  0  0
 29 34  1  0  0  0  0
 30 31  2  0  0  0  0
 30 29  1  0  0  0  0
 31 33  1  0  0  0  0
 32 31  1  0  0  0  0
 33 34  2  0  0  0  0
 34 35  1  0  0  0  0
M  END
>  <minimizedAffinity>
-5.99192619

>  <minimizedRMSD>
2.96267796

$$$$
