
 OpenBabel03262519593D

 33 36  0  0  1  0  0  0  0  0999 V2000
   39.2570   24.0150   34.1650 C   0  0  1  0  0  0  0  0  0  0  0  0
   38.1080   24.4560   34.9080 C   0  0  0  0  0  0  0  0  0  0  0  0
   38.6650   23.0130   35.1050 C   0  0  1  0  0  0  0  0  0  0  0  0
   40.2500   24.4760   34.4920 H   0  0  0  0  0  0  0  0  0  0  0  0
   38.1950   25.1130   35.7870 H   0  0  0  0  0  0  0  0  0  0  0  0
   37.1260   24.4990   34.4370 H   0  0  0  0  0  0  0  0  0  0  0  0
   38.7290   24.1240   31.7240 C   0  0  0  0  0  0  0  0  0  0  0  0
   39.0350   23.3780   30.5880 C   0  0  0  0  0  0  0  0  0  0  0  0
   39.8220   22.3710   31.0670 N   0  0  0  0  0  0  0  0  0  0  0  0
   39.9470   22.5430   32.3830 C   0  0  0  0  0  0  0  0  0  0  0  0
   39.2840   23.6130   32.8090 N   0  0  0  0  0  0  0  0  0  0  0  0
   38.6730   23.6330   29.5890 H   0  0  0  0  0  0  0  0  0  0  0  0
   40.5520   21.8120   32.9140 H   0  0  0  0  0  0  0  0  0  0  0  0
   37.9050   25.3270   31.7200 C   0  0  0  0  0  0  0  0  0  0  0  0
   38.5250   26.5920   31.7990 C   0  0  0  0  0  0  0  0  0  0  0  0
   37.6780   27.7270   31.7870 C   0  0  0  0  0  0  0  0  0  0  0  0
   36.3380   27.5190   31.7010 N   0  0  0  0  0  0  0  0  0  0  0  0
   35.7900   26.2860   31.6260 C   0  0  0  0  0  0  0  0  0  0  0  0
   36.5630   25.1900   31.6350 N   0  0  0  0  0  0  0  0  0  0  0  0
   39.5790   26.6970   31.8670 H   0  0  0  0  0  0  0  0  0  0  0  0
   38.0840   28.7210   31.8460 H   0  0  0  0  0  0  0  0  0  0  0  0
   34.7180   26.3010   31.5620 H   0  0  0  0  0  0  0  0  0  0  0  0
   37.5420   22.1040   34.8310 N   0  0  0  0  0  0  0  0  0  0  0  0
   36.9190   21.7630   35.9520 N   0  0  0  0  0  0  0  0  0  0  0  0
   35.8890   20.9210   35.6570 C   0  0  0  0  0  0  0  0  0  0  0  0
   35.1430   20.4170   36.2590 H   0  0  0  0  0  0  0  0  0  0  0  0
   35.9120   20.7610   34.2800 C   0  0  0  0  0  3  0  0  0  0  0  0
   36.9560   21.5100   33.7760 C   0  0  0  0  0  0  0  0  0  0  0  0
   37.4050   21.7360   32.8180 H   0  0  0  0  0  0  0  0  0  0  0  0
   39.3200   22.8690   36.4630 C   0  0  0  0  0  0  0  0  0  0  0  0
   39.7260   21.5640   36.6570 F   0  0  0  0  0  0  0  0  0  0  0  0
   40.5710   23.6180   36.4420 F   0  0  0  0  0  0  0  0  0  0  0  0
   38.6010   23.3750   37.4770 F   0  0  0  0  0  0  0  0  0  0  0  0
  1  4  1  1  0  0  0
  1  2  1  0  0  0  0
  1  3  1  0  0  0  0
  2  3  1  0  0  0  0
  2  5  1  0  0  0  0
  3 30  1  1  0  0  0
  6  2  1  0  0  0  0
  7 11  1  0  0  0  0
  8  9  1  0  0  0  0
  8  7  2  0  0  0  0
  9 10  2  0  0  0  0
 10 11  1  0  0  0  0
 10 13  1  0  0  0  0
 11  1  1  0  0  0  0
 12  8  1  0  0  0  0
 14  7  1  0  0  0  0
 14 15  1  0  0  0  0
 15 20  1  0  0  0  0
 16 15  2  0  0  0  0
 16 21  1  0  0  0  0
 17 16  1  0  0  0  0
 18 19  1  0  0  0  0
 18 17  2  0  0  0  0
 19 14  2  0  0  0  0
 22 18  1  0  0  0  0
 23  3  1  0  0  0  0
 23 24  1  0  0  0  0
 25 24  2  0  0  0  0
 25 26  1  0  0  0  0
 27 25  1  0  0  0  0
 28 27  2  0  0  0  0
 28 23  1  0  0  0  0
 29 28  1  0  0  0  0
 30 31  1  0  0  0  0
 30 33  1  0  0  0  0
 32 30  1  0  0  0  0
M  END
>  <minimizedAffinity>
-4.367311

>  <minimizedRMSD>
2.79256463

$$$$
