
 OpenBabel03262519033D

 40 44  0  0  0  0  0  0  0  0999 V2000
   37.7410   27.3680   35.3380 C   0  0  0  0  0  0  0  0  0  0  0  0
   37.1530   27.1980   36.2380 H   0  0  0  0  0  0  0  0  0  0  0  0
   38.1670   28.4140   35.4970 H   0  0  0  0  0  0  0  0  0  0  0  0
   38.9280   26.5380   35.1470 C   0  0  0  0  0  0  0  0  0  0  0  0
   40.0000   26.9980   34.3840 C   0  0  0  0  0  0  0  0  0  0  0  0
   41.1280   26.2390   34.2030 C   0  0  0  0  0  0  0  0  0  0  0  0
   41.2320   24.9710   34.7830 C   0  0  0  0  0  0  0  0  0  0  0  0
   40.1610   24.5040   35.5480 C   0  0  0  0  0  0  0  0  0  0  0  0
   40.2540   23.2610   36.1230 C   0  0  0  0  0  0  0  0  0  0  0  0
   39.2280   22.7550   36.8870 C   0  0  0  0  0  0  0  0  0  0  0  0
   38.0900   23.5240   37.0680 C   0  0  0  0  0  0  0  0  0  0  0  0
   38.0250   24.7830   36.4710 C   0  0  0  0  0  0  0  0  0  0  0  0
   39.0420   25.3070   35.7030 C   0  0  0  0  0  0  0  0  0  0  0  0
   39.9720   27.9740   33.9110 H   0  0  0  0  0  0  0  0  0  0  0  0
   41.9390   26.6280   33.6040 H   0  0  0  0  0  0  0  0  0  0  0  0
   42.1370   24.4230   34.6080 H   0  0  0  0  0  0  0  0  0  0  0  0
   41.1650   22.6930   35.9550 H   0  0  0  0  0  0  0  0  0  0  0  0
   39.3980   21.7660   37.2960 H   0  0  0  0  0  0  0  0  0  0  0  0
   37.2960   23.1080   37.6710 H   0  0  0  0  0  0  0  0  0  0  0  0
   37.0980   25.3030   36.6690 H   0  0  0  0  0  0  0  0  0  0  0  0
   35.6140   28.9680   32.8320 C   0  0  0  0  0  0  0  0  0  0  0  0
   35.4030   27.9920   31.8710 C   0  0  0  0  0  0  0  0  0  0  0  0
   36.0080   26.7400   32.0880 C   0  0  0  0  0  0  0  0  0  0  0  0
   36.7580   26.5540   33.2140 N   0  0  0  0  0  0  0  0  0  0  0  0
   36.9250   27.5220   34.0960 C   0  0  0  0  0  0  0  0  0  0  0  0
   36.3580   28.7280   33.9140 N   0  0  0  0  0  0  0  0  0  0  0  0
   35.1790   29.9600   32.7350 H   0  0  0  0  0  0  0  0  0  0  0  0
   34.8070   28.1800   31.0020 H   0  0  0  0  0  0  0  0  0  0  0  0
   35.8390   25.6580   31.1180 C   0  0  0  0  0  0  0  0  0  0  0  0
   34.7440   25.5910   30.4910 O   0  0  0  0  0  0  0  0  0  0  0  0
   36.9910   24.7710   30.9960 C   0  0  0  0  0  0  0  0  0  0  0  0
   38.2810   25.2320   30.7920 C   0  0  0  0  0  0  0  0  0  0  0  0
   39.3950   24.4330   30.6760 C   0  0  0  0  0  0  0  0  0  0  0  0
   39.2460   23.0770   30.7640 C   0  0  0  0  0  0  0  0  0  0  0  0
   37.9900   22.5450   30.9680 C   0  0  0  0  0  0  0  0  0  0  0  0
   37.8530   21.1630   31.0550 C   0  0  0  0  0  0  0  0  0  0  0  0
   36.6140   20.6010   31.2560 C   0  0  0  0  0  0  0  0  0  0  0  0
   35.5050   21.4300   31.3690 C   0  0  0  0  0  0  0  0  0  0  0  0
   35.6980   22.7970   31.2750 C   0  0  0  0  0  0  0  0  0  0  0  0
   36.9110   23.3990   31.0760 C   0  0  0  0  0  0  0  0  0  0  0  0
  1  3  1  0  0  0  0
  1  2  1  0  0  0  0
  4  1  1  0  0  0  0
  4 13  1  0  0  0  0
  5  4  2  0  0  0  0
  6  5  1  0  0  0  0
  6  7  2  0  0  0  0
  7  8  1  0  0  0  0
  8 13  2  0  0  0  0
  8  9  1  0  0  0  0
  9 10  2  0  0  0  0
 10 11  1  0  0  0  0
 10 18  1  0  0  0  0
 11 19  1  0  0  0  0
 12 20  1  0  0  0  0
 12 11  2  0  0  0  0
 13 12  1  0  0  0  0
 14  5  1  0  0  0  0
 15  6  1  0  0  0  0
 16  7  1  0  0  0  0
 17  9  1  0  0  0  0
 21 26  1  0  0  0  0
 22 23  1  0  0  0  0
 22 21  2  0  0  0  0
 23 24  2  0  0  0  0
 24 25  1  0  0  0  0
 25  1  1  0  0  0  0
 26 25  2  0  0  0  0
 27 21  1  0  0  0  0
 28 22  1  0  0  0  0
 29 23  1  0  0  0  0
 30 29  2  0  0  0  0
 31 40  1  0  0  0  0
 31 29  1  0  0  0  0
 32 31  2  0  0  0  0
 33 34  2  0  0  0  0
 33 32  1  0  0  0  0
 34 35  1  0  0  0  0
 35 36  2  0  0  0  0
 35 40  1  0  0  0  0
 36 37  1  0  0  0  0
 37 38  2  0  0  0  0
 39 38  1  0  0  0  0
 40 39  2  0  0  0  0
M  END
>  <minimizedAffinity>
-7.0122056

>  <minimizedRMSD>
1.95946229

$$$$
