
 OpenBabel03262518213D

 23 24  0  0  0  0  0  0  0  0999 V2000
   39.7690   23.0140   37.0900 C   0  0  0  0  0  0  0  0  0  0  0  0
   39.2840   23.8000   36.0380 C   0  0  0  0  0  0  0  0  0  0  0  0
   38.2140   24.6680   36.3550 C   0  0  0  0  0  0  0  0  0  0  0  0
   37.7260   24.6930   37.6260 N   0  0  0  0  0  0  0  0  0  0  0  0
   38.2410   23.9060   38.5980 C   0  0  0  0  0  0  0  0  0  0  0  0
   39.2500   23.0760   38.3360 N   0  0  0  0  0  0  0  0  0  0  0  0
   39.6470   23.7990   35.0390 H   0  0  0  0  0  0  0  0  0  0  0  0
   37.8480   23.9320   39.6050 H   0  0  0  0  0  0  0  0  0  0  0  0
   40.8490   22.1750   36.6600 N   0  0  0  0  0  0  0  0  0  0  0  0
   41.2530   22.0300   35.3880 N   0  0  0  0  0  0  0  0  0  0  0  0
   42.2990   21.1610   35.3440 C   0  0  0  0  0  0  0  0  0  0  0  0
   42.8520   20.8320   34.4650 H   0  0  0  0  0  0  0  0  0  0  0  0
   42.5450   20.7560   36.6610 C   0  0  0  0  0  0  0  0  0  0  0  0
   41.6120   21.4130   37.4730 C   0  0  0  0  0  0  0  0  0  0  0  0
   41.5170   21.3280   38.5570 H   0  0  0  0  0  0  0  0  0  0  0  0
   37.6370   25.5220   35.3480 N   0  0  0  0  0  0  0  0  0  0  0  0
   38.0830   26.8790   35.2690 C   0  0  0  0  0  0  0  0  0  0  0  0
   38.6280   27.4830   36.2790 N   0  0  0  0  0  0  0  0  0  0  0  0
   37.8900   27.5190   34.0240 N   0  0  0  0  0  0  0  0  0  0  0  0
   38.9710   28.4600   36.2570 H   0  0  0  0  0  0  0  0  0  0  0  0
   36.9190   25.1630   34.6960 H   0  0  0  0  0  0  0  0  0  0  0  0
   36.9190   27.6270   33.6250 H   0  0  0  0  0  0  0  0  0  0  0  0
   38.7170   27.8950   33.4800 H   0  0  0  0  0  0  0  0  0  0  0  0
  1  6  1  0  0  0  0
  2  3  1  0  0  0  0
  2  1  2  0  0  0  0
  3  4  2  0  0  0  0
  4  5  1  0  0  0  0
  5  8  1  0  0  0  0
  6  5  2  0  0  0  0
  7  2  1  0  0  0  0
  9  1  1  0  0  0  0
  9 14  1  0  0  0  0
 10  9  1  0  0  0  0
 11 10  2  0  0  0  0
 11 13  1  0  0  0  0
 12 11  1  0  0  0  0
 13 14  2  0  0  0  0
 14 15  1  0  0  0  0
 16  3  1  0  0  0  0
 17 16  1  0  0  0  0
 17 18  2  0  0  0  0
 19 17  1  0  0  0  0
 20 18  1  0  0  0  0
 21 16  1  0  0  0  0
 22 19  1  0  0  0  0
 23 19  1  0  0  0  0
M  END
>  <minimizedAffinity>
-4.62438154

>  <minimizedRMSD>
0.876630068

$$$$
