
 OpenBabel03262519553D

 30 33  0  0  1  0  0  0  0  0999 V2000
   38.0800   23.7460   34.5060 C   0  0  0  0  0  0  0  0  0  0  0  0
   38.2440   24.9390   33.8140 C   0  0  0  0  0  0  0  0  0  0  0  0
   37.7850   24.6530   32.5560 N   0  0  0  0  0  0  0  0  0  0  0  0
   37.3930   23.3920   32.5410 C   0  0  0  0  0  0  0  0  0  0  0  0
   37.5610   22.7860   33.7420 N   0  0  0  0  0  0  0  0  0  0  0  0
   38.6360   25.8740   34.1700 H   0  0  0  0  0  0  0  0  0  0  0  0
   36.9860   22.9180   31.6540 H   0  0  0  0  0  0  0  0  0  0  0  0
   38.4290   23.5430   35.9030 C   0  0  0  0  0  0  0  0  0  0  0  0
   39.6310   22.9390   36.2600 C   0  0  0  0  0  0  0  0  0  0  0  0
   39.9300   22.7620   37.6170 C   0  0  0  0  0  0  0  0  0  0  0  0
   39.0350   23.1890   38.5170 N   0  0  0  0  0  0  0  0  0  0  0  0
   37.8610   23.7810   38.1560 C   0  0  0  0  0  0  0  0  0  0  0  0
   37.5710   23.9510   36.8540 N   0  0  0  0  0  0  0  0  0  0  0  0
   40.3340   22.6040   35.5200 H   0  0  0  0  0  0  0  0  0  0  0  0
   40.8580   22.2950   37.9060 H   0  0  0  0  0  0  0  0  0  0  0  0
   37.1380   24.1250   38.8950 H   0  0  0  0  0  0  0  0  0  0  0  0
   37.2140   21.4050   34.0070 C   0  0  1  0  0  0  0  0  0  0  0  0
   35.9690   21.0550   34.7050 C   0  0  0  0  0  0  0  0  0  0  0  0
   36.0240   20.9540   33.1860 C   0  0  2  0  0  0  0  0  0  0  0  0
   38.1010   20.7400   34.0510 H   0  0  0  0  0  0  0  0  0  0  0  0
   35.9410   20.1440   35.3180 H   0  0  0  0  0  0  0  0  0  0  0  0
   35.3470   21.8700   35.1310 H   0  0  0  0  0  0  0  0  0  0  0  0
   35.4040   21.6960   32.6450 H   0  0  0  0  0  0  0  0  0  0  0  0
   36.0840   19.6000   32.6680 N   0  0  0  0  0  0  0  0  0  0  0  0
   35.1760   18.6520   32.8790 N   0  0  0  0  0  0  0  0  0  0  0  0
   35.5400   17.5190   32.2580 C   0  0  0  0  0  0  0  0  0  0  0  0
   35.0980   16.5310   32.1730 H   0  0  0  0  0  0  0  0  0  0  0  0
   36.7480   17.7460   31.6090 C   0  0  0  0  0  3  0  0  0  0  0  0
   37.0730   19.0770   31.8860 C   0  0  0  0  0  0  0  0  0  0  0  0
   37.9690   19.5760   31.5220 H   0  0  0  0  0  0  0  0  0  0  0  0
  1  8  1  0  0  0  0
  2  6  1  0  0  0  0
  2  1  2  0  0  0  0
  3  2  1  0  0  0  0
  4  3  2  0  0  0  0
  4  5  1  0  0  0  0
  5 17  1  0  0  0  0
  5  1  1  0  0  0  0
  7  4  1  0  0  0  0
  8  9  2  0  0  0  0
  8 13  1  0  0  0  0
  9 10  1  0  0  0  0
 10 15  1  0  0  0  0
 10 11  2  0  0  0  0
 12 11  1  0  0  0  0
 12 16  1  0  0  0  0
 13 12  2  0  0  0  0
 14  9  1  0  0  0  0
 17 20  1  1  0  0  0
 17 18  1  0  0  0  0
 18 22  1  0  0  0  0
 18 21  1  0  0  0  0
 19 23  1  6  0  0  0
 19 17  1  0  0  0  0
 19 18  1  0  0  0  0
 24 25  1  0  0  0  0
 24 19  1  0  0  0  0
 26 25  2  0  0  0  0
 27 26  1  0  0  0  0
 28 29  2  0  0  0  0
 28 26  1  0  0  0  0
 29 24  1  0  0  0  0
 30 29  1  0  0  0  0
M  END
>  <minimizedAffinity>
-4.63621664

>  <minimizedRMSD>
0.749824405

$$$$
