
 OpenBabel03262519593D

 33 36  0  0  1  0  0  0  0  0999 V2000
   39.0410   22.4240   36.4020 C   0  0  1  0  0  0  0  0  0  0  0  0
   40.1510   23.2650   36.7620 C   0  0  0  0  0  0  0  0  0  0  0  0
   38.6910   23.7940   36.8880 C   0  0  1  0  0  0  0  0  0  0  0  0
   38.8280   21.5690   37.1290 H   0  0  0  0  0  0  0  0  0  0  0  0
   40.6900   23.1490   37.7150 H   0  0  0  0  0  0  0  0  0  0  0  0
   40.7440   23.7600   35.9920 H   0  0  0  0  0  0  0  0  0  0  0  0
   39.2250   22.0870   33.9310 C   0  0  0  0  0  0  0  0  0  0  0  0
   38.3660   21.7390   32.8910 C   0  0  0  0  0  0  0  0  0  0  0  0
   37.1620   21.5700   33.5110 N   0  0  0  0  0  0  0  0  0  0  0  0
   37.3370   21.8070   34.8110 C   0  0  0  0  0  0  0  0  0  0  0  0
   38.5960   22.1260   35.0930 N   0  0  0  0  0  0  0  0  0  0  0  0
   38.6910   21.6520   31.8520 H   0  0  0  0  0  0  0  0  0  0  0  0
   36.4590   21.7100   35.4450 H   0  0  0  0  0  0  0  0  0  0  0  0
   40.6470   22.3650   33.7660 C   0  0  0  0  0  0  0  0  0  0  0  0
   41.5830   21.3260   33.9520 C   0  0  0  0  0  0  0  0  0  0  0  0
   42.9500   21.6500   33.7750 C   0  0  0  0  0  0  0  0  0  0  0  0
   43.2610   22.9290   33.4400 N   0  0  0  0  0  0  0  0  0  0  0  0
   42.3280   23.8920   33.2710 C   0  0  0  0  0  0  0  0  0  0  0  0
   41.0240   23.6190   33.4320 N   0  0  0  0  0  0  0  0  0  0  0  0
   41.2840   20.3420   34.2150 H   0  0  0  0  0  0  0  0  0  0  0  0
   43.7160   20.9060   33.9020 H   0  0  0  0  0  0  0  0  0  0  0  0
   42.7440   24.8460   33.0080 H   0  0  0  0  0  0  0  0  0  0  0  0
   38.6340   25.0260   36.0870 N   0  0  0  0  0  0  0  0  0  0  0  0
   37.3840   25.3200   35.7500 N   0  0  0  0  0  0  0  0  0  0  0  0
   37.3740   26.4650   35.0120 C   0  0  0  0  0  0  0  0  0  0  0  0
   36.5880   27.0450   34.5460 H   0  0  0  0  0  0  0  0  0  0  0  0
   38.6990   26.8640   34.9110 C   0  0  0  0  0  3  0  0  0  0  0  0
   39.4770   25.9510   35.5920 C   0  0  0  0  0  0  0  0  0  0  0  0
   40.5220   25.7850   35.8230 H   0  0  0  0  0  0  0  0  0  0  0  0
   38.2910   23.9280   38.3430 C   0  0  0  0  0  0  0  0  0  0  0  0
   37.3130   23.0050   38.6530 F   0  0  0  0  0  0  0  0  0  0  0  0
   39.4240   23.5160   39.1620 F   0  0  0  0  0  0  0  0  0  0  0  0
   37.9980   25.1830   38.7190 F   0  0  0  0  0  0  0  0  0  0  0  0
  1  2  1  0  0  0  0
  1  3  1  0  0  0  0
  1  4  1  1  0  0  0
  2  3  1  0  0  0  0
  2  5  1  0  0  0  0
  3 30  1  1  0  0  0
  6  2  1  0  0  0  0
  7 11  1  0  0  0  0
  8  9  1  0  0  0  0
  8  7  2  0  0  0  0
  9 10  2  0  0  0  0
 10 11  1  0  0  0  0
 10 13  1  0  0  0  0
 11  1  1  0  0  0  0
 12  8  1  0  0  0  0
 14  7  1  0  0  0  0
 14 15  1  0  0  0  0
 15 20  1  0  0  0  0
 16 21  1  0  0  0  0
 16 15  2  0  0  0  0
 17 16  1  0  0  0  0
 18 19  1  0  0  0  0
 18 17  2  0  0  0  0
 19 14  2  0  0  0  0
 22 18  1  0  0  0  0
 23  3  1  0  0  0  0
 24 23  1  0  0  0  0
 25 24  2  0  0  0  0
 26 25  1  0  0  0  0
 27 25  1  0  0  0  0
 27 28  2  0  0  0  0
 28 29  1  0  0  0  0
 28 23  1  0  0  0  0
 30 31  1  0  0  0  0
 30 33  1  0  0  0  0
 30 32  1  0  0  0  0
M  END
>  <minimizedAffinity>
-4.83615875

>  <minimizedRMSD>
3.69702148

$$$$
