
 OpenBabel03262519553D

 30 33  0  0  1  0  0  0  0  0999 V2000
   38.0680   23.7390   34.4880 C   0  0  0  0  0  0  0  0  0  0  0  0
   38.2150   24.9380   33.8010 C   0  0  0  0  0  0  0  0  0  0  0  0
   37.7580   24.6520   32.5430 N   0  0  0  0  0  0  0  0  0  0  0  0
   37.3820   23.3860   32.5230 C   0  0  0  0  0  0  0  0  0  0  0  0
   37.5600   22.7770   33.7200 N   0  0  0  0  0  0  0  0  0  0  0  0
   38.5960   25.8760   34.1610 H   0  0  0  0  0  0  0  0  0  0  0  0
   36.9790   22.9110   31.6340 H   0  0  0  0  0  0  0  0  0  0  0  0
   38.4240   23.5350   35.8830 C   0  0  0  0  0  0  0  0  0  0  0  0
   39.6330   22.9420   36.2340 C   0  0  0  0  0  0  0  0  0  0  0  0
   39.9370   22.7630   37.5890 C   0  0  0  0  0  0  0  0  0  0  0  0
   39.0400   23.1750   38.4930 N   0  0  0  0  0  0  0  0  0  0  0  0
   37.8580   23.7550   38.1380 C   0  0  0  0  0  0  0  0  0  0  0  0
   37.5630   23.9280   36.8380 N   0  0  0  0  0  0  0  0  0  0  0  0
   40.3380   22.6180   35.4910 H   0  0  0  0  0  0  0  0  0  0  0  0
   40.8710   22.3050   37.8740 H   0  0  0  0  0  0  0  0  0  0  0  0
   37.1330   24.0890   38.8800 H   0  0  0  0  0  0  0  0  0  0  0  0
   37.2310   21.3900   33.9790 C   0  0  1  0  0  0  0  0  0  0  0  0
   35.9610   21.0170   34.6150 C   0  0  0  0  0  0  0  0  0  0  0  0
   36.0960   20.9050   33.1020 C   0  0  2  0  0  0  0  0  0  0  0  0
   38.1300   20.7460   34.0740 H   0  0  0  0  0  0  0  0  0  0  0  0
   35.9220   20.1100   35.2340 H   0  0  0  0  0  0  0  0  0  0  0  0
   35.2980   21.8200   35.0010 H   0  0  0  0  0  0  0  0  0  0  0  0
   35.4890   21.6280   32.5220 H   0  0  0  0  0  0  0  0  0  0  0  0
   36.2140   19.5490   32.5990 N   0  0  0  0  0  0  0  0  0  0  0  0
   37.2530   19.0610   31.9310 N   0  0  0  0  0  0  0  0  0  0  0  0
   37.0380   17.7740   31.6150 C   0  0  0  0  0  0  0  0  0  0  0  0
   37.6120   17.0210   31.0880 H   0  0  0  0  0  0  0  0  0  0  0  0
   35.7900   17.4090   32.1080 C   0  0  0  0  0  3  0  0  0  0  0  0
   35.2870   18.5560   32.7290 C   0  0  0  0  0  0  0  0  0  0  0  0
   34.3180   18.6100   33.2210 H   0  0  0  0  0  0  0  0  0  0  0  0
  1  8  1  0  0  0  0
  2  6  1  0  0  0  0
  2  1  2  0  0  0  0
  3  2  1  0  0  0  0
  4  3  2  0  0  0  0
  4  5  1  0  0  0  0
  5 17  1  0  0  0  0
  5  1  1  0  0  0  0
  7  4  1  0  0  0  0
  8  9  2  0  0  0  0
  8 13  1  0  0  0  0
  9 10  1  0  0  0  0
 10 15  1  0  0  0  0
 10 11  2  0  0  0  0
 12 11  1  0  0  0  0
 12 16  1  0  0  0  0
 13 12  2  0  0  0  0
 14  9  1  0  0  0  0
 17 20  1  1  0  0  0
 17 18  1  0  0  0  0
 18 22  1  0  0  0  0
 18 21  1  0  0  0  0
 19 23  1  6  0  0  0
 19 17  1  0  0  0  0
 19 18  1  0  0  0  0
 24 29  1  0  0  0  0
 24 19  1  0  0  0  0
 25 24  1  0  0  0  0
 26 25  2  0  0  0  0
 26 28  1  0  0  0  0
 27 26  1  0  0  0  0
 28 29  2  0  0  0  0
 29 30  1  0  0  0  0
M  END
>  <minimizedAffinity>
-4.62440729

>  <minimizedRMSD>
0.726760447

$$$$
