REMARK  Name = 
REMARK  3 active torsions:
REMARK  status: ('A' for Active; 'I' for Inactive)
REMARK    1  A    between atoms: C_1  and  C_6
REMARK    2  A    between atoms: N_5  and  C_12
REMARK    3  A    between atoms: C_14  and  N_24
REMARK                            x       y       z     vdW  Elec       q    Type
REMARK                         _______ _______ _______ _____ _____    ______ ____
ROOT
ATOM      1  C   UNL     1      38.030  23.473  34.620  0.00  0.00    +0.000 A 
ATOM      2  C   UNL     1      38.260  24.569  33.799  0.00  0.00    +0.000 A 
ATOM      3  N   UNL     1      37.760  24.179  32.585  0.00  0.00    +0.000 NA
ATOM      4  C   UNL     1      37.285  22.954  32.714  0.00  0.00    +0.000 A 
ATOM      5  N   UNL     1      37.434  22.473  33.972  0.00  0.00    +0.000 N 
ATOM      6  H   UNL     1      38.720  25.509  34.045  0.00  0.00    +0.000 HD
ATOM      7  H   UNL     1      36.831  22.414  31.889  0.00  0.00    +0.000 HD
ENDROOT
BRANCH   1   8
ATOM      8  C   UNL     1      38.391  23.401  36.027  0.00  0.00    +0.000 A 
ATOM      9  C   UNL     1      39.585  22.811  36.430  0.00  0.00    +0.000 A 
ATOM     10  C   UNL     1      39.896  22.762  37.795  0.00  0.00    +0.000 A 
ATOM     11  N   UNL     1      39.019  23.292  38.657  0.00  0.00    +0.000 NA
ATOM     12  C   UNL     1      37.852  23.868  38.251  0.00  0.00    +0.000 A 
ATOM     13  N   UNL     1      37.551  23.916  36.941  0.00  0.00    +0.000 NA
ATOM     14  H   UNL     1      40.274  22.392  35.720  0.00  0.00    +0.000 HD
ATOM     15  H   UNL     1      40.818  22.308  38.120  0.00  0.00    +0.000 HD
ATOM     16  H   UNL     1      37.143  24.297  38.959  0.00  0.00    +0.000 HD
ENDBRANCH   1   8
BRANCH   5  17
ATOM     17  C   UNL     1      37.001  21.156  34.392  0.00  0.00    +0.000 C 
ATOM     18  C   UNL     1      35.829  20.983  35.261  0.00  0.00    +0.000 C 
ATOM     19  C   UNL     1      35.681  20.767  33.760  0.00  0.00    +0.000 C 
ATOM     20  H   UNL     1      37.823  20.411  34.385  0.00  0.00    +0.000 HD
ATOM     21  H   UNL     1      35.797  20.126  35.947  0.00  0.00    +0.000 HD
ATOM     22  H   UNL     1      35.341  21.884  35.688  0.00  0.00    +0.000 HD
ATOM     23  H   UNL     1      35.067  21.526  33.236  0.00  0.00    +0.000 HD
BRANCH  19  24
ATOM     24  N   UNL     1      35.553  19.380  33.354  0.00  0.00    +0.000 N 
ATOM     25  N   UNL     1      36.544  18.496  33.305  0.00  0.00    +0.000 NA
ATOM     26  C   UNL     1      36.081  17.307  32.889  0.00  0.00    +0.000 A 
ATOM     27  H   UNL     1      36.540  16.339  32.712  0.00  0.00    +0.000 HD
ATOM     28  C   UNL     1      34.716  17.427  32.656  0.00  0.00    +0.000 A 
ATOM     29  C   UNL     1      34.404  18.756  32.960  0.00  0.00    +0.000 A 
ATOM     30  H   UNL     1      33.407  19.183  32.883  0.00  0.00    +0.000 HD
ENDBRANCH  19  24
ENDBRANCH   5  17
TORSDOF 3
