
     RDKit          3D

 31 34  0  0  0  0  0  0  0  0999 V2000
   38.0304   23.4730   34.6201 C   0  0  0  0  0  0  0  0  0  0  0  0
   38.2595   24.5685   33.7993 C   0  0  0  0  0  0  0  0  0  0  0  0
   37.7600   24.1789   32.5850 N   0  0  0  0  0  0  0  0  0  0  0  0
   37.2850   22.9543   32.7135 C   0  0  0  0  0  0  0  0  0  0  0  0
   37.4336   22.4730   33.9723 N   0  0  0  0  0  0  0  0  0  0  0  0
   38.3910   23.4015   36.0268 C   0  0  0  0  0  0  0  0  0  0  0  0
   39.5852   22.8113   36.4297 C   0  0  0  0  0  0  0  0  0  0  0  0
   39.8961   22.7623   37.7949 C   0  0  0  0  0  0  0  0  0  0  0  0
   39.0191   23.2920   38.6567 N   0  0  0  0  0  0  0  0  0  0  0  0
   37.8523   23.8677   38.2508 C   0  0  0  0  0  0  0  0  0  0  0  0
   37.5511   23.9162   36.9413 N   0  0  0  0  0  0  0  0  0  0  0  0
   37.0011   21.1564   34.3925 C   0  0  1  0  0  0  0  0  0  0  0  0
   35.8292   20.9829   35.2614 C   0  0  0  0  0  0  0  0  0  0  0  0
   35.6813   20.7669   33.7597 C   0  0  2  0  0  0  0  0  0  0  0  0
   38.7201   25.5095   34.0447 H   0  0  0  0  0  0  0  0  0  0  0  0
   36.8307   22.4139   31.8888 H   0  0  0  0  0  0  0  0  0  0  0  0
   40.2741   22.3925   35.7204 H   0  0  0  0  0  0  0  0  0  0  0  0
   40.8181   22.3077   38.1198 H   0  0  0  0  0  0  0  0  0  0  0  0
   37.1428   24.2971   38.9594 H   0  0  0  0  0  0  0  0  0  0  0  0
   37.8233   20.4110   34.3847 H   0  0  0  0  0  0  0  0  0  0  0  0
   35.7967   20.1263   35.9469 H   0  0  0  0  0  0  0  0  0  0  0  0
   35.3408   21.8835   35.6877 H   0  0  0  0  0  0  0  0  0  0  0  0
   35.0667   21.5258   33.2360 H   0  0  0  0  0  0  0  0  0  0  0  0
   35.5529   19.3796   33.3543 N   0  0  0  0  0  0  0  0  0  0  0  0
   36.5437   18.4962   33.3047 N   0  0  0  0  0  0  0  0  0  0  0  0
   36.0813   17.3069   32.8886 C   0  0  0  0  0  0  0  0  0  0  0  0
   36.5396   16.3388   32.7123 H   0  0  0  0  0  0  0  0  0  0  0  0
   34.7161   17.4274   32.6562 C   0  0  0  0  0  0  0  0  0  0  0  0
   34.4044   18.7558   32.9600 C   0  0  0  0  0  0  0  0  0  0  0  0
   33.4071   19.1831   32.8832 H   0  0  0  0  0  0  0  0  0  0  0  0
   33.9888   16.6859   32.3116 H   0  0  0  0  0  0  0  0  0  0  0  0
  1  6  1  0
  2  1  2  0
  3  4  2  0
  3  2  1  0
  4  5  1  0
  5 12  1  0
  5  1  1  0
  6  7  2  0
  6 11  1  0
  7  8  1  0
  8  9  2  0
 10  9  1  0
 11 10  2  0
 12 13  1  0
 14 12  1  0
 14 13  1  0
  2 15  1  0
  4 16  1  0
  7 17  1  0
  8 18  1  0
 10 19  1  0
 12 20  1  1
 13 21  1  0
 13 22  1  0
 14 23  1  6
 24 25  1  0
 25 26  2  0
 26 27  1  0
 26 28  1  0
 28 29  2  0
 29 30  1  0
 29 24  1  0
 28 31  1  0
 14 24  1  0
M  ISO  8  15  14  16  14  17  14  18  14  19  14  20  13  21  13  22  13
M  ISO  3  23  13  27  14  30  14
M  END
>  <DihAtoms>  (1) 
11,13,23,24

>  <DihDeg>  (1) 
-100.81706746566408

$$$$
