REMARK  Name = 
REMARK  4 active torsions:
REMARK  status: ('A' for Active; 'I' for Inactive)
REMARK    1  A    between atoms: C_1  and  C_6
REMARK    2  A    between atoms: N_5  and  C_12
REMARK    3  A    between atoms: C_14  and  C_15
REMARK    4  A    between atoms: C_14  and  N_27
REMARK                            x       y       z     vdW  Elec       q    Type
REMARK                         _______ _______ _______ _____ _____    ______ ____
ROOT
ATOM      1  C   UNL     1      37.867  23.699  33.501  0.00  0.00    +0.000 A 
ATOM      2  C   UNL     1      37.466  22.656  32.667  0.00  0.00    +0.000 A 
ATOM      3  N   UNL     1      37.487  21.561  33.484  0.00  0.00    +0.000 NA
ATOM      4  C   UNL     1      37.873  21.966  34.691  0.00  0.00    +0.000 A 
ATOM      5  N   UNL     1      38.112  23.272  34.729  0.00  0.00    +0.000 N 
ATOM      6  H   UNL     1      37.214  22.786  31.617  0.00  0.00    +0.000 HD
ATOM      7  H   UNL     1      37.925  21.158  35.430  0.00  0.00    +0.000 HD
ENDROOT
BRANCH   1   8
ATOM      8  C   UNL     1      38.011  25.083  33.079  0.00  0.00    +0.000 A 
ATOM      9  C   UNL     1      39.294  25.584  32.769  0.00  0.00    +0.000 A 
ATOM     10  C   UNL     1      39.391  26.931  32.355  0.00  0.00    +0.000 A 
ATOM     11  N   UNL     1      38.241  27.652  32.286  0.00  0.00    +0.000 NA
ATOM     12  C   UNL     1      37.031  27.132  32.593  0.00  0.00    +0.000 A 
ATOM     13  N   UNL     1      36.913  25.854  32.989  0.00  0.00    +0.000 NA
ATOM     14  H   UNL     1      40.177  24.969  32.840  0.00  0.00    +0.000 HD
ATOM     15  H   UNL     1      40.359  27.354  32.108  0.00  0.00    +0.000 HD
ATOM     16  H   UNL     1      36.221  27.834  32.487  0.00  0.00    +0.000 HD
ENDBRANCH   1   8
BRANCH   5  17
ATOM     17  C   UNL     1      38.533  23.946  35.899  0.00  0.00    +0.000 C 
ATOM     18  C   UNL     1      38.081  25.228  36.364  0.00  0.00    +0.000 C 
ATOM     19  C   UNL     1      37.561  23.917  37.029  0.00  0.00    +0.000 C 
ATOM     20  H   UNL     1      39.612  23.692  36.174  0.00  0.00    +0.000 HD
ATOM     21  H   UNL     1      37.306  25.809  35.844  0.00  0.00    +0.000 HD
ATOM     22  H   UNL     1      38.749  25.873  36.989  0.00  0.00    +0.000 HD
BRANCH  19  23
ATOM     23  N   UNL     1      36.088  23.970  36.931  0.00  0.00    +0.000 N 
ATOM     24  C   UNL     1      35.182  23.139  36.380  0.00  0.00    +0.000 A 
ATOM     25  N   UNL     1      33.968  23.682  36.582  0.00  0.00    +0.000 NA
ATOM     26  C   UNL     1      34.102  24.839  37.251  0.00  0.00    +0.000 A 
ATOM     27  N   UNL     1      35.430  25.009  37.463  0.00  0.00    +0.000 NA
ENDBRANCH  19  23
BRANCH  19  28
ATOM     28  C   UNL     1      38.123  23.766  38.426  0.00  0.00    +0.000 C 
ATOM     29  F   UNL     1      37.514  22.704  39.067  0.00  0.00    +0.000 F 
ATOM     30  F   UNL     1      39.512  23.345  38.308  0.00  0.00    +0.000 F 
ATOM     31  F   UNL     1      38.136  24.901  39.142  0.00  0.00    +0.000 F 
ENDBRANCH  19  28
ENDBRANCH   5  17
TORSDOF 4
