
 OpenBabel03262517463D

 27 30  0  0  0  0  0  0  0  0999 V2000
   39.7470   22.7770   37.9030 C   0  0  0  0  0  0  0  0  0  0  0  0
   38.8270   23.4990   38.6800 C   0  0  0  0  0  0  0  0  0  0  0  0
   37.8110   24.2040   38.0000 C   0  0  0  0  0  0  0  0  0  0  0  0
   37.7860   24.1390   36.6340 N   0  0  0  0  0  0  0  0  0  0  0  0
   38.6940   23.4300   35.9290 C   0  0  0  0  0  0  0  0  0  0  0  0
   39.6720   22.7510   36.5690 N   0  0  0  0  0  0  0  0  0  0  0  0
   38.5550   23.4460   34.5070 N   0  0  0  0  0  0  0  0  0  0  0  0
   38.9520   22.4050   33.7150 C   0  0  0  0  0  0  0  0  0  0  0  0
   38.6910   22.7160   32.4210 N   0  0  0  0  0  0  0  0  0  0  0  0
   38.1330   23.9390   32.3640 C   0  0  0  0  0  0  0  0  0  0  0  0
   37.6530   24.7910   31.3680 C   0  0  0  0  0  0  0  0  0  0  0  0
   37.1380   25.9920   31.6790 N   0  0  0  0  0  0  0  0  0  0  0  0
   37.0860   26.3730   32.9650 C   0  0  0  0  0  0  0  0  0  0  0  0
   37.5370   25.5810   33.9620 N   0  0  0  0  0  0  0  0  0  0  0  0
   38.0580   24.3710   33.6780 C   0  0  0  0  0  0  0  0  0  0  0  0
   37.7870   24.2290   30.0660 N   0  0  0  0  0  0  0  0  0  0  0  0
   40.5070   22.2500   38.4250 H   0  0  0  0  0  0  0  0  0  0  0  0
   38.8510   23.5480   39.7620 H   0  0  0  0  0  0  0  0  0  0  0  0
   37.0510   24.7930   38.5120 H   0  0  0  0  0  0  0  0  0  0  0  0
   39.4030   21.4840   34.0710 H   0  0  0  0  0  0  0  0  0  0  0  0
   38.2150   24.7430   29.2650 H   0  0  0  0  0  0  0  0  0  0  0  0
   37.4560   23.2530   29.8430 H   0  0  0  0  0  0  0  0  0  0  0  0
   36.5380   27.6510   33.3020 N   0  0  0  0  0  0  0  0  0  0  0  0
   36.4080   28.2130   34.5130 C   0  0  0  0  0  0  0  0  0  0  0  0
   35.8370   29.4400   34.3890 N   0  0  0  0  0  0  0  0  0  0  0  0
   35.6090   29.6360   33.0780 C   0  0  0  0  0  0  0  0  0  0  0  0
   36.0420   28.5420   32.4410 N   0  0  0  0  0  0  0  0  0  0  0  0
  1 17  1  0  0  0  0
  1  2  1  0  0  0  0
  2 18  1  0  0  0  0
  3 19  1  0  0  0  0
  3  2  2  0  0  0  0
  4  3  1  0  0  0  0
  5  6  1  0  0  0  0
  5  4  2  0  0  0  0
  6  1  2  0  0  0  0
  7  5  1  0  0  0  0
  8 20  1  0  0  0  0
  8  7  1  0  0  0  0
  9  8  2  0  0  0  0
 10  9  1  0  0  0  0
 10 15  1  0  0  0  0
 11 12  1  0  0  0  0
 11 10  2  0  0  0  0
 12 13  2  0  0  0  0
 13 23  1  0  0  0  0
 13 14  1  0  0  0  0
 15 14  2  0  0  0  0
 15  7  1  0  0  0  0
 16 11  1  0  0  0  0
 21 16  1  0  0  0  0
 22 16  1  0  0  0  0
 23 24  1  0  0  0  0
 25 24  2  0  0  0  0
 26 25  1  0  0  0  0
 27 26  2  0  0  0  0
 27 23  1  0  0  0  0
M  END
>  <minimizedAffinity>
-5.86440325

>  <minimizedRMSD>
1.63758218

$$$$
