
 OpenBabel03262519353D

 29 31  0  0  1  0  0  0  0  0999 V2000
   37.7310   24.2240   33.8650 N   0  0  0  0  0  0  0  0  0  0  0  0
   37.8710   22.9510   33.2150 C   0  0  0  0  0  0  0  0  0  0  0  0
   37.0120   23.0350   31.9740 C   0  0  0  0  0  0  0  0  0  0  0  0
   36.4270   24.4490   32.0260 C   0  0  0  0  0  0  0  0  0  0  0  0
   37.5720   25.1380   32.7720 C   0  0  1  0  0  0  0  0  0  0  0  0
   38.9600   22.8300   32.9540 H   0  0  0  0  0  0  0  0  0  0  0  0
   37.5710   22.1510   33.9140 H   0  0  0  0  0  0  0  0  0  0  0  0
   36.1880   22.2860   32.0660 H   0  0  0  0  0  0  0  0  0  0  0  0
   37.6570   22.8940   31.1100 H   0  0  0  0  0  0  0  0  0  0  0  0
   35.5000   24.4710   32.6270 H   0  0  0  0  0  0  0  0  0  0  0  0
   36.2950   24.8710   30.9980 H   0  0  0  0  0  0  0  0  0  0  0  0
   38.4330   25.2020   32.0960 H   0  0  0  0  0  0  0  0  0  0  0  0
   37.1250   26.4660   33.1860 N   0  0  0  0  0  0  0  0  0  0  0  0
   36.9230   27.5180   32.3720 C   0  0  0  0  0  0  0  0  0  0  0  0
   36.5110   28.5910   33.0880 N   0  0  0  0  0  0  0  0  0  0  0  0
   36.4620   28.1840   34.3640 C   0  0  0  0  0  0  0  0  0  0  0  0
   36.8310   26.9060   34.4200 N   0  0  0  0  0  0  0  0  0  0  0  0
   38.9190   24.6320   34.5790 C   0  0  0  0  0  0  0  0  0  0  0  0
   39.2010   25.6780   34.4550 H   0  0  0  0  0  0  0  0  0  0  0  0
   39.7570   24.0480   34.0970 H   0  0  0  0  0  0  0  0  0  0  0  0
   37.9890   24.1560   38.2160 C   0  0  0  0  0  0  0  0  0  0  0  0
   37.9460   24.6400   36.9020 C   0  0  0  0  0  0  0  0  0  0  0  0
   38.8980   24.1650   35.9960 C   0  0  0  0  0  0  0  0  0  0  0  0
   39.8330   23.2430   36.4380 N   0  0  0  0  0  0  0  0  0  0  0  0
   39.8200   22.8140   37.7250 C   0  0  0  0  0  0  0  0  0  0  0  0
   38.9050   23.2720   38.5920 N   0  0  0  0  0  0  0  0  0  0  0  0
   37.2650   24.5020   38.9490 H   0  0  0  0  0  0  0  0  0  0  0  0
   37.2100   25.3580   36.5800 H   0  0  0  0  0  0  0  0  0  0  0  0
   40.5800   22.0930   38.0010 H   0  0  0  0  0  0  0  0  0  0  0  0
  1 18  1  0  0  0  0
  2  1  1  0  0  0  0
  2  7  1  0  0  0  0
  3  4  1  0  0  0  0
  3  8  1  0  0  0  0
  3  2  1  0  0  0  0
  4 10  1  0  0  0  0
  4  5  1  0  0  0  0
  5 12  1  6  0  0  0
  5 13  1  0  0  0  0
  5  1  1  0  0  0  0
  6  2  1  0  0  0  0
  9  3  1  0  0  0  0
 11  4  1  0  0  0  0
 13 17  1  0  0  0  0
 14 15  2  0  0  0  0
 14 13  1  0  0  0  0
 15 16  1  0  0  0  0
 16 17  2  0  0  0  0
 18 23  1  0  0  0  0
 19 18  1  0  0  0  0
 20 18  1  0  0  0  0
 21 26  1  0  0  0  0
 21 27  1  0  0  0  0
 22 21  2  0  0  0  0
 23 24  2  0  0  0  0
 23 22  1  0  0  0  0
 24 25  1  0  0  0  0
 25 29  1  0  0  0  0
 25 26  2  0  0  0  0
 28 22  1  0  0  0  0
M  END
>  <minimizedAffinity>
-4.31987906

>  <minimizedRMSD>
2.59105635

$$$$
