
 OpenBabel03262519333D

 18 19  0  0  0  0  0  0  0  0999 V2000
   40.7350   22.1610   37.5600 C   0  0  0  0  0  0  0  0  0  0  0  0
   39.6110   22.9640   37.7730 C   0  0  0  0  0  0  0  0  0  0  0  0
   38.8610   23.3910   36.6590 C   0  0  0  0  0  0  0  0  0  0  0  0
   39.2970   22.9800   35.4410 N   0  0  0  0  0  0  0  0  0  0  0  0
   40.3780   22.2090   35.2550 C   0  0  0  0  0  0  0  0  0  0  0  0
   41.0900   21.8060   36.3230 N   0  0  0  0  0  0  0  0  0  0  0  0
   41.3210   21.8250   38.4040 H   0  0  0  0  0  0  0  0  0  0  0  0
   39.3130   23.2600   38.7690 H   0  0  0  0  0  0  0  0  0  0  0  0
   40.6090   21.9570   34.2110 H   0  0  0  0  0  0  0  0  0  0  0  0
   37.6530   24.2470   36.8170 C   0  0  0  0  0  0  0  0  0  0  0  0
   37.5620   24.5550   37.8780 H   0  0  0  0  0  0  0  0  0  0  0  0
   36.7510   23.6860   36.4850 H   0  0  0  0  0  0  0  0  0  0  0  0
   37.7960   25.4760   35.9890 C   0  0  0  0  0  0  0  0  0  0  0  0
   38.4270   26.6290   36.4650 C   0  0  0  0  0  0  0  0  0  0  0  0
   38.3600   27.5310   35.4240 C   0  0  0  0  0  0  0  0  0  0  0  0
   37.7060   26.8700   34.4050 C   0  0  0  0  0  0  0  0  0  0  0  0
   37.5280   27.3740   33.4660 H   0  0  0  0  0  0  0  0  0  0  0  0
   37.3730   25.6450   34.7520 O   0  0  0  0  0  0  0  0  0  0  0  0
  1  2  1  0  0  0  0
  1  7  1  0  0  0  0
  2  8  1  0  0  0  0
  3 10  1  0  0  0  0
  3  2  2  0  0  0  0
  4  3  1  0  0  0  0
  5  4  2  0  0  0  0
  5  6  1  0  0  0  0
  6  1  2  0  0  0  0
  9  5  1  0  0  0  0
 10 11  1  0  0  0  0
 12 10  1  0  0  0  0
 13 14  2  0  0  0  0
 13 10  1  0  0  0  0
 15 14  1  0  0  0  0
 16 18  1  0  0  0  0
 16 15  2  0  0  0  0
 17 16  1  0  0  0  0
 18 13  1  0  0  0  0
M  END
>  <minimizedAffinity>
-3.67055631

>  <minimizedRMSD>
2.1196537

$$$$
