
 OpenBabel03262519593D

 31 34  0  0  1  0  0  0  0  0999 V2000
   39.1560   23.5060   32.7100 C   0  0  0  0  0  0  0  0  0  0  0  0
   38.9030   22.6070   31.6750 C   0  0  0  0  0  0  0  0  0  0  0  0
   39.5420   21.4670   32.0730 N   0  0  0  0  0  0  0  0  0  0  0  0
   40.1130   21.7140   33.2490 C   0  0  0  0  0  0  0  0  0  0  0  0
   39.8920   22.9560   33.6620 N   0  0  0  0  0  0  0  0  0  0  0  0
   38.3160   22.8520   30.7930 H   0  0  0  0  0  0  0  0  0  0  0  0
   40.6590   20.8570   33.6610 H   0  0  0  0  0  0  0  0  0  0  0  0
   38.6850   24.8810   32.7410 C   0  0  0  0  0  0  0  0  0  0  0  0
   39.5180   25.9120   32.2550 C   0  0  0  0  0  0  0  0  0  0  0  0
   39.0200   27.2330   32.2940 C   0  0  0  0  0  0  0  0  0  0  0  0
   37.7730   27.4200   32.8000 N   0  0  0  0  0  0  0  0  0  0  0  0
   37.0070   26.4030   33.2560 C   0  0  0  0  0  0  0  0  0  0  0  0
   37.4580   25.1380   33.2290 N   0  0  0  0  0  0  0  0  0  0  0  0
   40.5020   25.7100   31.8630 H   0  0  0  0  0  0  0  0  0  0  0  0
   39.6300   28.0540   31.9310 H   0  0  0  0  0  0  0  0  0  0  0  0
   36.0460   26.7190   33.6240 H   0  0  0  0  0  0  0  0  0  0  0  0
   40.3910   23.4640   34.8850 C   0  0  1  0  0  0  0  0  0  0  0  0
   39.7510   24.4190   35.7460 C   0  0  0  0  0  0  0  0  0  0  0  0
   39.7530   22.9020   36.1090 C   0  0  1  0  0  0  0  0  0  0  0  0
   41.5330   23.4980   34.8990 H   0  0  0  0  0  0  0  0  0  0  0  0
   38.7540   24.8320   35.5370 H   0  0  0  0  0  0  0  0  0  0  0  0
   40.3610   25.0890   36.4030 H   0  0  0  0  0  0  0  0  0  0  0  0
   38.3350   22.5230   36.2740 N   0  0  0  0  0  0  0  0  0  0  0  0
   37.3790   22.9260   37.1320 C   0  0  0  0  0  3  0  0  0  0  0  0
   36.2570   22.2470   36.8290 N   0  0  0  0  0  0  0  0  0  0  0  0
   36.4990   21.4250   35.7950 C   0  0  0  0  0  3  0  0  0  0  0  0
   37.8000   21.6060   35.4560 N   0  0  0  0  0  0  0  0  0  0  0  0
   40.6480   22.6380   37.3010 C   0  0  0  0  0  0  0  0  0  0  0  0
   40.9140   21.2860   37.4000 F   0  0  0  0  0  0  0  0  0  0  0  0
   41.9510   23.2260   37.0230 F   0  0  0  0  0  0  0  0  0  0  0  0
   40.2230   23.1960   38.4450 F   0  0  0  0  0  0  0  0  0  0  0  0
  1  8  1  0  0  0  0
  1  5  1  0  0  0  0
  2  3  1  0  0  0  0
  2  1  2  0  0  0  0
  3  4  2  0  0  0  0
  4  7  1  0  0  0  0
  4  5  1  0  0  0  0
  5 17  1  0  0  0  0
  6  2  1  0  0  0  0
  8 13  1  0  0  0  0
  9 10  1  0  0  0  0
  9  8  2  0  0  0  0
 10 11  2  0  0  0  0
 11 12  1  0  0  0  0
 12 16  1  0  0  0  0
 13 12  2  0  0  0  0
 14  9  1  0  0  0  0
 15 10  1  0  0  0  0
 17 20  1  1  0  0  0
 17 18  1  0  0  0  0
 17 19  1  0  0  0  0
 18 19  1  0  0  0  0
 18 22  1  0  0  0  0
 19 23  1  0  0  0  0
 19 28  1  1  0  0  0
 21 18  1  0  0  0  0
 23 24  1  0  0  0  0
 25 24  2  0  0  0  0
 26 25  1  0  0  0  0
 27 26  2  0  0  0  0
 27 23  1  0  0  0  0
 28 29  1  0  0  0  0
 28 31  1  0  0  0  0
 30 28  1  0  0  0  0
M  END
>  <minimizedAffinity>
-4.12303543

>  <minimizedRMSD>
2.39928699

$$$$
