REMARK  Name = 
REMARK  5 active torsions:
REMARK  status: ('A' for Active; 'I' for Inactive)
REMARK    1  A    between atoms: C_2  and  C_7
REMARK    2  A    between atoms: C_3  and  C_11
REMARK    3  A    between atoms: C_11  and  C_12
REMARK    4  A    between atoms: C_12  and  C_13
REMARK    5  A    between atoms: C_15  and  N_26
REMARK                            x       y       z     vdW  Elec       q    Type
REMARK                         _______ _______ _______ _____ _____    ______ ____
ROOT
ATOM      1  C   UNL     1      39.789  23.913  35.376  0.00  0.00    +0.000 C 
ATOM      2  H   UNL     1      39.232  23.031  35.537  0.00  0.00    +0.000 HD
ATOM      3  H   UNL     1      39.772  23.928  34.219  0.00  0.00    +0.000 HD
ENDROOT
BRANCH   1   6
ATOM      4  C   UNL     1      43.125  23.334  36.540  0.00  0.00    +0.000 A 
ATOM      5  C   UNL     1      41.728  23.109  36.401  0.00  0.00    +0.000 A 
ATOM      6  C   UNL     1      41.174  24.042  35.626  0.00  0.00    +0.000 A 
ATOM      7  N   UNL     1      41.907  25.077  35.052  0.00  0.00    +0.000 NA
ATOM      8  C   UNL     1      43.207  25.226  35.223  0.00  0.00    +0.000 A 
ATOM      9  N   UNL     1      43.816  24.343  35.976  0.00  0.00    +0.000 NA
ATOM     10  H   UNL     1      43.774  22.672  37.145  0.00  0.00    +0.000 HD
ATOM     11  H   UNL     1      43.670  26.047  34.743  0.00  0.00    +0.000 HD
BRANCH   5  12
ATOM     12  C   UNL     1      41.236  21.970  37.085  0.00  0.00    +0.000 C 
ATOM     13  F   UNL     1      40.475  22.312  38.230  0.00  0.00    +0.000 F 
ATOM     14  F   UNL     1      42.029  21.186  37.839  0.00  0.00    +0.000 F 
ATOM     15  F   UNL     1      40.152  21.284  36.538  0.00  0.00    +0.000 F 
ENDBRANCH   5  12
ENDBRANCH   1   6
BRANCH   1  16
ATOM     16  C   UNL     1      39.019  25.095  35.703  0.00  0.00    +0.000 C 
ATOM     17  H   UNL     1      39.612  25.720  36.435  0.00  0.00    +0.000 HD
ATOM     18  H   UNL     1      38.778  25.814  34.893  0.00  0.00    +0.000 HD
BRANCH  16  19
ATOM     19  C   UNL     1      37.778  24.654  36.488  0.00  0.00    +0.000 C 
ATOM     20  C   UNL     1      38.020  24.386  37.930  0.00  0.00    +0.000 C 
ATOM     21  C   UNL     1      37.554  23.330  36.967  0.00  0.00    +0.000 C 
ATOM     22  H   UNL     1      36.949  25.345  36.289  0.00  0.00    +0.000 HD
ATOM     23  H   UNL     1      37.261  24.782  38.675  0.00  0.00    +0.000 HD
ATOM     24  H   UNL     1      39.014  24.533  38.299  0.00  0.00    +0.000 HD
ATOM     25  H   UNL     1      37.996  22.431  37.198  0.00  0.00    +0.000 HD
BRANCH  21  26
ATOM     26  N   UNL     1      36.090  23.042  37.083  0.00  0.00    +0.000 N 
ATOM     27  C   UNL     1      35.355  22.485  38.085  0.00  0.00    +0.000 A 
ATOM     28  N   UNL     1      34.084  22.438  37.720  0.00  0.00    +0.000 NA
ATOM     29  C   UNL     1      33.979  22.950  36.505  0.00  0.00    +0.000 A 
ATOM     30  N   UNL     1      35.190  23.314  36.123  0.00  0.00    +0.000 NA
ENDBRANCH  21  26
ENDBRANCH  16  19
ENDBRANCH   1  16
TORSDOF 5
