
 OpenBabel03262519113D

 20 21  0  0  0  0  0  0  0  0999 V2000
   38.1290   25.6910   35.4470 C   0  0  0  0  0  0  0  0  0  0  0  0
   37.8760   27.0210   35.7820 C   0  0  0  0  0  0  0  0  0  0  0  0
   37.3580   27.8300   34.8370 C   0  0  0  0  0  0  0  0  0  0  0  0
   37.1030   27.2840   33.5620 C   0  0  0  0  0  0  0  0  0  0  0  0
   37.6350   25.5130   33.7300 S   0  0  0  0  0  0  0  0  0  0  0  0
   38.0930   27.3820   36.7760 H   0  0  0  0  0  0  0  0  0  0  0  0
   37.1050   28.8740   34.9260 H   0  0  0  0  0  0  0  0  0  0  0  0
   38.1420   24.3330   37.5550 C   0  0  0  0  0  0  0  0  0  0  0  0
   38.6740   24.6620   36.2870 C   0  0  0  0  0  0  0  0  0  0  0  0
   39.7650   23.9750   35.8220 C   0  0  0  0  0  0  0  0  0  0  0  0
   40.2800   23.0010   36.6210 N   0  0  0  0  0  0  0  0  0  0  0  0
   39.7560   22.6970   37.8370 C   0  0  0  0  0  0  0  0  0  0  0  0
   38.6860   23.3740   38.2900 N   0  0  0  0  0  0  0  0  0  0  0  0
   37.2640   24.9000   37.9070 H   0  0  0  0  0  0  0  0  0  0  0  0
   40.1910   24.2070   34.8550 H   0  0  0  0  0  0  0  0  0  0  0  0
   40.2420   21.9080   38.3890 H   0  0  0  0  0  0  0  0  0  0  0  0
   36.5890   27.7880   32.3670 C   0  0  0  0  0  0  0  0  0  0  0  0
   35.6830   27.1940   31.7640 O   0  0  0  0  0  0  0  0  0  0  0  0
   36.9280   28.9500   31.6430 O   0  0  0  0  0  0  0  0  0  0  0  0
   37.2310   28.9050   30.6580 H   0  0  0  0  0  0  0  0  0  0  0  0
  1  2  2  0  0  0  0
  1  9  1  0  0  0  0
  2  6  1  0  0  0  0
  3  7  1  0  0  0  0
  3  2  1  0  0  0  0
  4  5  1  0  0  0  0
  4  3  2  0  0  0  0
  5  1  1  0  0  0  0
  8 14  1  0  0  0  0
  8 13  1  0  0  0  0
  9  8  2  0  0  0  0
 10  9  1  0  0  0  0
 10 11  2  0  0  0  0
 11 12  1  0  0  0  0
 12 13  2  0  0  0  0
 12 16  1  0  0  0  0
 15 10  1  0  0  0  0
 17  4  1  0  0  0  0
 18 17  2  0  0  0  0
 19 17  1  0  0  0  0
 20 19  1  0  0  0  0
M  END
>  <minimizedAffinity>
-4.00820541

>  <minimizedRMSD>
0.178679109

$$$$
