
 OpenBabel03262519433D

 30 32  0  0  1  0  0  0  0  0999 V2000
   38.4800   24.0420   36.2770 C   0  0  1  0  0  0  0  0  0  0  0  0
   37.9330   23.3610   35.5510 H   0  0  0  0  0  0  0  0  0  0  0  0
   41.2580   21.7950   37.4820 C   0  0  0  0  0  0  0  0  0  0  0  0
   39.9920   22.3950   37.3470 C   0  0  0  0  0  0  0  0  0  0  0  0
   39.8060   23.4490   36.4200 C   0  0  0  0  0  0  0  0  0  0  0  0
   40.8660   23.8610   35.6790 N   0  0  0  0  0  0  0  0  0  0  0  0
   42.0840   23.2540   35.8370 C   0  0  0  0  0  0  0  0  0  0  0  0
   42.2720   22.2300   36.7320 N   0  0  0  0  0  0  0  0  0  0  0  0
   41.3290   21.0020   38.2000 H   0  0  0  0  0  0  0  0  0  0  0  0
   39.1760   22.0390   37.9570 H   0  0  0  0  0  0  0  0  0  0  0  0
   42.9620   23.5410   35.2710 H   0  0  0  0  0  0  0  0  0  0  0  0
   37.6560   24.0090   37.5530 C   0  0  0  0  0  0  0  0  0  0  0  0
   37.4900   22.9750   37.9130 H   0  0  0  0  0  0  0  0  0  0  0  0
   36.7060   24.5560   37.3360 H   0  0  0  0  0  0  0  0  0  0  0  0
   38.2430   24.5450   38.3550 H   0  0  0  0  0  0  0  0  0  0  0  0
   38.5060   25.4540   35.7610 C   0  0  0  0  0  0  0  0  0  0  0  0
   39.5580   25.8010   35.7930 H   0  0  0  0  0  0  0  0  0  0  0  0
   37.9790   26.1120   36.4960 H   0  0  0  0  0  0  0  0  0  0  0  0
   37.9150   25.6220   34.4130 C   0  0  0  0  0  0  0  0  0  0  0  0
   38.0970   24.5990   33.5330 N   0  0  0  0  0  0  0  0  0  0  0  0
   37.6170   24.5800   32.2910 C   0  0  0  0  0  3  0  0  0  0  0  0
   36.8990   25.6390   31.8570 N   0  0  0  0  0  0  0  0  0  0  0  0
   36.6840   26.6820   32.6780 C   0  0  0  0  0  0  0  0  0  0  0  0
   35.9560   27.7650   32.2310 C   0  0  0  0  0  3  0  0  0  0  0  0
   35.7480   28.8370   33.0890 C   0  0  0  0  0  0  0  0  0  0  0  0
   35.1750   29.6260   32.6580 H   0  0  0  0  0  0  0  0  0  0  0  0
   36.2710   28.8160   34.3860 C   0  0  0  0  0  0  0  0  0  0  0  0
   36.0730   29.6860   35.0040 H   0  0  0  0  0  0  0  0  0  0  0  0
   37.0010   27.7320   34.8340 C   0  0  0  0  0  3  0  0  0  0  0  0
   37.1840   26.6970   33.9630 C   0  0  0  0  0  0  0  0  0  0  0  0
  1  2  1  6  0  0  0
  1  5  1  0  0  0  0
  1 12  1  0  0  0  0
  3  9  1  0  0  0  0
  4  3  1  0  0  0  0
  4 10  1  0  0  0  0
  5  4  2  0  0  0  0
  6  7  2  0  0  0  0
  6  5  1  0  0  0  0
  7  8  1  0  0  0  0
  8  3  2  0  0  0  0
 11  7  1  0  0  0  0
 12 13  1  0  0  0  0
 12 15  1  0  0  0  0
 14 12  1  0  0  0  0
 16 17  1  0  0  0  0
 16  1  1  0  0  0  0
 16 18  1  0  0  0  0
 19 16  1  0  0  0  0
 20 19  2  0  0  0  0
 21 20  1  0  0  0  0
 22 21  2  0  0  0  0
 22 23  1  0  0  0  0
 23 30  1  0  0  0  0
 24 23  2  0  0  0  0
 24 25  1  0  0  0  0
 25 27  2  0  0  0  0
 26 25  1  0  0  0  0
 27 29  1  0  0  0  0
 27 28  1  0  0  0  0
 30 19  1  0  0  0  0
 30 29  2  0  0  0  0
M  END
>  <minimizedAffinity>
-4.9156785

>  <minimizedRMSD>
1.40068734

$$$$
