
 OpenBabel03262516413D

 42 46  0  0  1  0  0  0  0  0999 V2000
   39.7410   22.9140   37.9630 C   0  0  0  0  0  0  0  0  0  0  0  0
   38.4800   23.2920   38.4420 C   0  0  0  0  0  0  0  0  0  0  0  0
   37.6970   24.0910   37.6150 C   0  0  0  0  0  0  0  0  0  0  0  0
   38.2020   24.4500   36.4070 N   0  0  0  0  0  0  0  0  0  0  0  0
   39.4320   24.0660   35.9700 C   0  0  0  0  0  0  0  0  0  0  0  0
   40.1900   23.2940   36.7680 N   0  0  0  0  0  0  0  0  0  0  0  0
   39.8220   24.5160   34.6900 N   0  0  0  0  0  0  0  0  0  0  0  0
   38.8770   24.4240   33.6010 C   0  0  0  0  0  0  0  0  0  0  0  0
   39.3370   25.1100   32.3500 C   0  0  0  0  0  0  0  0  0  0  0  0
   40.2130   26.1870   32.6950 N   0  0  0  0  0  0  0  0  0  0  0  0
   41.4480   25.5640   33.1700 C   0  0  0  0  0  0  0  0  0  0  0  0
   41.1850   25.0500   34.5830 C   0  0  2  0  0  0  0  0  0  0  0  0
   40.3320   22.2920   38.6240 H   0  0  0  0  0  0  0  0  0  0  0  0
   38.0950   22.9990   39.4030 H   0  0  0  0  0  0  0  0  0  0  0  0
   36.7080   24.4460   37.8760 H   0  0  0  0  0  0  0  0  0  0  0  0
   37.9150   24.8680   33.9730 H   0  0  0  0  0  0  0  0  0  0  0  0
   38.6510   23.3560   33.3680 H   0  0  0  0  0  0  0  0  0  0  0  0
   39.8820   24.4210   31.6700 H   0  0  0  0  0  0  0  0  0  0  0  0
   38.4380   25.5430   31.8310 H   0  0  0  0  0  0  0  0  0  0  0  0
   39.8040   26.7900   33.4540 H   0  0  0  0  0  0  0  0  0  0  0  0
   42.2810   26.2900   33.2160 H   0  0  0  0  0  0  0  0  0  0  0  0
   41.6880   24.7060   32.5110 H   0  0  0  0  0  0  0  0  0  0  0  0
   41.2400   25.9260   35.2420 H   0  0  0  0  0  0  0  0  0  0  0  0
   42.1880   24.0490   35.0260 C   0  0  0  0  0  0  0  0  0  0  0  0
   43.1350   24.3940   35.9600 C   0  0  0  0  0  0  0  0  0  0  0  0
   44.1140   23.5630   36.4570 C   0  0  0  0  0  0  0  0  0  0  0  0
   44.1150   22.2640   35.9470 C   0  0  0  0  0  0  0  0  0  0  0  0
   43.1580   21.9320   35.0110 C   0  0  0  0  0  0  0  0  0  0  0  0
   42.2310   22.7930   34.5690 N   0  0  0  0  0  0  0  0  0  0  0  0
   43.1170   25.4060   36.3420 H   0  0  0  0  0  0  0  0  0  0  0  0
   44.8230   23.8940   37.1830 H   0  0  0  0  0  0  0  0  0  0  0  0
   44.8660   21.5830   36.3110 H   0  0  0  0  0  0  0  0  0  0  0  0
   43.2460   20.5860   34.5560 N   0  0  0  0  0  0  0  0  0  0  0  0
   43.3950   20.1590   33.2980 C   0  0  0  0  0  0  0  0  0  0  0  0
   43.4380   18.8130   33.2430 N   0  0  0  0  0  0  0  0  0  0  0  0
   43.3150   18.3560   34.4900 C   0  0  0  0  0  0  0  0  0  0  0  0
   43.2980   17.0560   34.9740 C   0  0  0  0  0  0  0  0  0  0  0  0
   43.3950   16.2290   34.2980 H   0  0  0  0  0  0  0  0  0  0  0  0
   43.1550   16.9430   36.3210 N   0  0  0  0  0  0  0  0  0  0  0  0
   43.0360   18.0110   37.1350 C   0  0  0  0  0  0  0  0  0  0  0  0
   43.0540   19.2840   36.6500 N   0  0  0  0  0  0  0  0  0  0  0  0
   43.1940   19.4730   35.3140 C   0  0  0  0  0  0  0  0  0  0  0  0
  1  2  1  0  0  0  0
  1 13  1  0  0  0  0
  2 14  1  0  0  0  0
  3 15  1  0  0  0  0
  3  2  2  0  0  0  0
  4  3  1  0  0  0  0
  5  4  2  0  0  0  0
  5  6  1  0  0  0  0
  6  1  2  0  0  0  0
  7  5  1  0  0  0  0
  8 16  1  0  0  0  0
  8  7  1  0  0  0  0
  9 10  1  0  0  0  0
  9  8  1  0  0  0  0
 10 11  1  0  0  0  0
 10 20  1  0  0  0  0
 11 21  1  0  0  0  0
 11 12  1  0  0  0  0
 12  7  1  0  0  0  0
 12 24  1  0  0  0  0
 12 23  1  1  0  0  0
 17  8  1  0  0  0  0
 18  9  1  0  0  0  0
 19  9  1  0  0  0  0
 22 11  1  0  0  0  0
 24 25  1  0  0  0  0
 25 30  1  0  0  0  0
 25 26  2  0  0  0  0
 26 31  1  0  0  0  0
 27 32  1  0  0  0  0
 27 26  1  0  0  0  0
 28 27  2  0  0  0  0
 29 28  1  0  0  0  0
 29 24  2  0  0  0  0
 33 28  1  0  0  0  0
 33 42  1  0  0  0  0
 34 33  1  0  0  0  0
 35 34  2  0  0  0  0
 35 36  1  0  0  0  0
 36 37  2  0  0  0  0
 36 42  1  0  0  0  0
 37 39  1  0  0  0  0
 38 37  1  0  0  0  0
 39 40  2  0  0  0  0
 41 40  1  0  0  0  0
 42 41  2  0  0  0  0
M  END
>  <minimizedAffinity>
-5.20307016

>  <minimizedRMSD>
1.57448828

$$$$
