
 OpenBabel03262514063D

 34 37  0  0  0  0  0  0  0  0999 V2000
   35.1050   20.1120   32.3140 C   0  0  0  0  0  0  0  0  0  0  0  0
   34.9630   19.5110   33.2500 H   0  0  0  0  0  0  0  0  0  0  0  0
   34.1040   20.5050   32.0800 H   0  0  0  0  0  0  0  0  0  0  0  0
   37.5930   22.5160   33.6300 C   0  0  0  0  0  0  0  0  0  0  0  0
   36.9870   21.2610   33.6610 C   0  0  0  0  0  0  0  0  0  0  0  0
   36.0250   21.2070   32.6920 C   0  0  0  0  0  0  0  0  0  0  0  0
   36.0790   22.4550   32.0950 C   0  0  0  0  0  0  0  0  0  0  0  0
   37.0320   23.2030   32.6880 O   0  0  0  0  0  0  0  0  0  0  0  0
   37.1990   20.4240   34.3220 H   0  0  0  0  0  0  0  0  0  0  0  0
   35.4800   22.8420   31.2710 H   0  0  0  0  0  0  0  0  0  0  0  0
   38.6630   22.8620   34.5580 C   0  0  0  0  0  0  0  0  0  0  0  0
   39.5570   23.9070   34.3840 C   0  0  0  0  0  0  0  0  0  0  0  0
   40.5270   24.1350   35.3320 C   0  0  0  0  0  0  0  0  0  0  0  0
   40.5810   23.3300   36.4140 N   0  0  0  0  0  0  0  0  0  0  0  0
   39.7000   22.3000   36.5880 C   0  0  0  0  0  0  0  0  0  0  0  0
   38.7450   22.0710   35.6600 N   0  0  0  0  0  0  0  0  0  0  0  0
   39.4500   24.4990   33.5010 H   0  0  0  0  0  0  0  0  0  0  0  0
   41.2330   24.9410   35.2190 H   0  0  0  0  0  0  0  0  0  0  0  0
   39.7160   21.6370   37.4420 H   0  0  0  0  0  0  0  0  0  0  0  0
   35.6870   19.2360   31.2090 C   0  0  0  0  0  0  0  0  0  0  0  0
   35.0360   19.1990   30.3330 H   0  0  0  0  0  0  0  0  0  0  0  0
   36.6190   19.7540   30.8700 H   0  0  0  0  0  0  0  0  0  0  0  0
   36.1010   17.9090   31.7010 C   0  0  0  0  0  0  0  0  0  0  0  0
   35.2510   16.8990   32.0440 N   0  0  0  0  0  0  0  0  0  0  0  0
   35.6500   15.7010   32.4720 C   0  0  0  0  0  0  0  0  0  0  0  0
   36.9610   15.4050   32.5950 N   0  0  0  0  0  0  0  0  0  0  0  0
   37.8770   16.3360   32.2800 C   0  0  0  0  0  0  0  0  0  0  0  0
   39.2180   16.0260   32.4120 C   0  0  0  0  0  0  0  0  0  0  0  0
   40.1520   16.9970   32.0890 C   0  0  0  0  0  0  0  0  0  0  0  0
   41.1850   16.7140   32.2060 H   0  0  0  0  0  0  0  0  0  0  0  0
   39.7750   18.2650   31.6390 C   0  0  0  0  0  0  0  0  0  0  0  0
   40.5410   19.0020   31.3920 H   0  0  0  0  0  0  0  0  0  0  0  0
   38.4100   18.5250   31.5220 C   0  0  0  0  0  0  0  0  0  0  0  0
   37.4560   17.5820   31.8360 C   0  0  0  0  0  0  0  0  0  0  0  0
  1  6  1  0  0  0  0
  1  2  1  0  0  0  0
  3  1  1  0  0  0  0
  4  5  2  0  0  0  0
  4 11  1  0  0  0  0
  5  9  1  0  0  0  0
  6  5  1  0  0  0  0
  7  8  1  0  0  0  0
  7  6  2  0  0  0  0
  8  4  1  0  0  0  0
 10  7  1  0  0  0  0
 11 16  1  0  0  0  0
 12 11  2  0  0  0  0
 12 13  1  0  0  0  0
 13 14  2  0  0  0  0
 14 15  1  0  0  0  0
 15 19  1  0  0  0  0
 16 15  2  0  0  0  0
 17 12  1  0  0  0  0
 18 13  1  0  0  0  0
 20 23  1  0  0  0  0
 20  1  1  0  0  0  0
 21 20  1  0  0  0  0
 22 20  1  0  0  0  0
 23 34  2  0  0  0  0
 23 24  1  0  0  0  0
 24 25  2  0  0  0  0
 25 26  1  0  0  0  0
 27 28  1  0  0  0  0
 27 26  2  0  0  0  0
 29 30  1  0  0  0  0
 29 28  2  0  0  0  0
 31 29  1  0  0  0  0
 32 31  1  0  0  0  0
 33 31  2  0  0  0  0
 33 34  1  0  0  0  0
 34 27  1  0  0  0  0
M  END
>  <minimizedAffinity>
-4.3315177

>  <minimizedRMSD>
3.31600356

$$$$
