
 OpenBabel03262518003D

 27 30  0  0  0  0  0  0  0  0999 V2000
   43.9730   19.9080   36.5910 C   0  0  0  0  0  0  0  0  0  0  0  0
   42.6420   20.3020   36.7490 C   0  0  0  0  0  0  0  0  0  0  0  0
   42.3090   21.6030   36.3930 C   0  0  0  0  0  0  0  0  0  0  0  0
   43.3070   22.4010   35.9160 N   0  0  0  0  0  0  0  0  0  0  0  0
   44.5790   21.9980   35.7750 C   0  0  0  0  0  0  0  0  0  0  0  0
   44.9090   20.7170   36.1240 N   0  0  0  0  0  0  0  0  0  0  0  0
   44.2850   18.9030   36.8540 H   0  0  0  0  0  0  0  0  0  0  0  0
   41.9060   19.6230   37.1300 H   0  0  0  0  0  0  0  0  0  0  0  0
   45.4140   23.0340   35.2550 N   0  0  0  0  0  0  0  0  0  0  0  0
   45.8780   23.2860   34.0030 C   0  0  0  0  0  0  0  0  0  0  0  0
   46.6330   24.3900   34.0320 N   0  0  0  0  0  0  0  0  0  0  0  0
   46.6610   24.8540   35.2910 C   0  0  0  0  0  0  0  0  0  0  0  0
   47.2760   25.9510   35.9060 C   0  0  0  0  0  0  0  0  0  0  0  0
   47.8830   26.6370   35.3300 H   0  0  0  0  0  0  0  0  0  0  0  0
   47.0820   26.1140   37.2310 N   0  0  0  0  0  0  0  0  0  0  0  0
   46.3490   25.3090   37.9980 C   0  0  0  0  0  0  0  0  0  0  0  0
   45.7550   24.2520   37.4170 N   0  0  0  0  0  0  0  0  0  0  0  0
   45.8910   24.0050   36.0890 C   0  0  0  0  0  0  0  0  0  0  0  0
   40.9400   22.0980   36.5260 C   0  0  0  0  0  0  0  0  0  0  0  0
   39.8610   22.1340   35.6910 N   0  0  0  0  0  0  0  0  0  0  0  0
   38.8650   22.6880   36.3040 O   0  0  0  0  0  0  0  0  0  0  0  0
   39.2290   23.0320   37.5330 C   0  0  0  0  0  0  0  0  0  0  0  0
   40.5160   22.6650   37.6690 N   0  0  0  0  0  0  0  0  0  0  0  0
   38.4110   23.6850   38.5640 C   0  0  0  0  0  0  0  0  0  0  0  0
   39.1960   23.9010   39.6920 F   0  0  0  0  0  0  0  0  0  0  0  0
   37.3480   22.8790   38.9620 F   0  0  0  0  0  0  0  0  0  0  0  0
   37.9690   24.9000   38.1260 F   0  0  0  0  0  0  0  0  0  0  0  0
  1  2  1  0  0  0  0
  1  7  1  0  0  0  0
  2  8  1  0  0  0  0
  3 19  1  0  0  0  0
  3  2  2  0  0  0  0
  4  3  1  0  0  0  0
  5  4  2  0  0  0  0
  5  6  1  0  0  0  0
  6  1  2  0  0  0  0
  9  5  1  0  0  0  0
  9 18  1  0  0  0  0
 10 11  2  0  0  0  0
 10  9  1  0  0  0  0
 11 12  1  0  0  0  0
 12 13  2  0  0  0  0
 12 18  1  0  0  0  0
 13 15  1  0  0  0  0
 14 13  1  0  0  0  0
 15 16  2  0  0  0  0
 17 16  1  0  0  0  0
 18 17  2  0  0  0  0
 19 23  1  0  0  0  0
 20 21  1  0  0  0  0
 20 19  2  0  0  0  0
 21 22  1  0  0  0  0
 22 23  2  0  0  0  0
 22 24  1  0  0  0  0
 24 26  1  0  0  0  0
 24 25  1  0  0  0  0
 27 24  1  0  0  0  0
M  END
>  <minimizedAffinity>
-5.4709239

>  <minimizedRMSD>
3.08222723

$$$$
