REMARK  Name = 
REMARK  4 active torsions:
REMARK  status: ('A' for Active; 'I' for Inactive)
REMARK    1  A    between atoms: C_3  and  C_7
REMARK    2  A    between atoms: C_7  and  C_8
REMARK    3  A    between atoms: C_7  and  C_9
REMARK    4  A    between atoms: C_9  and  C_19
REMARK                            x       y       z     vdW  Elec       q    Type
REMARK                         _______ _______ _______ _____ _____    ______ ____
ROOT
ATOM      1  C   UNL     1      38.068  24.185  37.073  0.00  0.00    +0.000 C 
ATOM      2  H   UNL     1      37.147  23.588  36.780  0.00  0.00    +0.000 HD
ENDROOT
BRANCH   1   5
ATOM      3  C   UNL     1      41.025  21.876  37.453  0.00  0.00    +0.000 A 
ATOM      4  C   UNL     1      39.949  22.727  37.767  0.00  0.00    +0.000 A 
ATOM      5  C   UNL     1      39.196  23.325  36.728  0.00  0.00    +0.000 A 
ATOM      6  N   UNL     1      39.537  23.062  35.440  0.00  0.00    +0.000 NA
ATOM      7  C   UNL     1      40.591  22.229  35.172  0.00  0.00    +0.000 A 
ATOM      8  N   UNL     1      41.325  21.644  36.174  0.00  0.00    +0.000 NA
ATOM      9  H   UNL     1      41.551  21.456  38.287  0.00  0.00    +0.000 HD
ATOM     10  H   UNL     1      39.712  22.911  38.803  0.00  0.00    +0.000 HD
ATOM     11  H   UNL     1      40.906  21.984  34.164  0.00  0.00    +0.000 HD
ENDBRANCH   1   5
BRANCH   1  12
ATOM     12  C   UNL     1      37.925  24.434  38.565  0.00  0.00    +0.000 C 
ATOM     13  H   UNL     1      37.776  23.494  39.130  0.00  0.00    +0.000 HD
ATOM     14  H   UNL     1      37.085  25.160  38.689  0.00  0.00    +0.000 HD
ATOM     15  H   UNL     1      38.892  24.887  38.931  0.00  0.00    +0.000 HD
ENDBRANCH   1  12
BRANCH   1  16
ATOM     16  C   UNL     1      38.086  25.511  36.365  0.00  0.00    +0.000 C 
ATOM     17  H   UNL     1      38.981  26.063  36.713  0.00  0.00    +0.000 HD
ATOM     18  H   UNL     1      37.226  26.124  36.736  0.00  0.00    +0.000 HD
BRANCH  16  19
ATOM     19  C   UNL     1      38.041  25.415  34.887  0.00  0.00    +0.000 A 
ATOM     20  N   UNL     1      37.072  24.620  34.355  0.00  0.00    +0.000 NA
ATOM     21  C   UNL     1      36.881  24.439  33.050  0.00  0.00    +0.000 A 
ATOM     22  N   UNL     1      37.693  25.078  32.180  0.00  0.00    +0.000 NA
ATOM     23  C   UNL     1      38.670  25.877  32.643  0.00  0.00    +0.000 A 
ATOM     24  C   UNL     1      39.502  26.524  31.753  0.00  0.00    +0.000 A 
ATOM     25  C   UNL     1      40.511  27.342  32.246  0.00  0.00    +0.000 A 
ATOM     26  H   UNL     1      41.103  27.799  31.487  0.00  0.00    +0.000 HD
ATOM     27  C   UNL     1      40.678  27.503  33.627  0.00  0.00    +0.000 A 
ATOM     28  H   UNL     1      41.485  28.155  33.944  0.00  0.00    +0.000 HD
ATOM     29  C   UNL     1      39.844  26.856  34.517  0.00  0.00    +0.000 A 
ATOM     30  C   UNL     1      38.865  26.062  33.995  0.00  0.00    +0.000 A 
ENDBRANCH  16  19
ENDBRANCH   1  16
TORSDOF 4
