
 OpenBabel03262519563D

 33 37  0  0  1  0  0  0  0  0999 V2000
   38.7410   22.2220   33.3810 C   0  0  1  0  0  0  0  0  0  0  0  0
   39.8170   22.0260   34.3510 C   0  0  0  0  0  0  0  0  0  0  0  0
   39.5660   23.4160   33.8370 C   0  0  2  0  0  0  0  0  0  0  0  0
   37.6890   22.1540   33.7400 H   0  0  0  0  0  0  0  0  0  0  0  0
   40.7280   21.5060   34.0260 H   0  0  0  0  0  0  0  0  0  0  0  0
   39.5650   21.8660   35.4040 H   0  0  0  0  0  0  0  0  0  0  0  0
   40.3450   23.8280   33.1920 H   0  0  0  0  0  0  0  0  0  0  0  0
   38.8470   24.3700   34.6480 N   0  0  0  0  0  0  0  0  0  0  0  0
   38.6580   24.3680   35.9790 C   0  0  0  0  0  3  0  0  0  0  0  0
   37.9170   25.4640   36.3130 N   0  0  0  0  0  0  0  0  0  0  0  0
   37.6310   26.1660   35.2000 C   0  0  0  0  0  0  0  0  0  0  0  0
   36.9500   27.3180   34.8610 C   0  0  0  0  0  0  0  0  0  0  0  0
   36.4840   27.8760   35.6610 H   0  0  0  0  0  0  0  0  0  0  0  0
   36.8720   27.7300   33.5770 N   0  0  0  0  0  0  0  0  0  0  0  0
   37.4510   27.0420   32.5710 C   0  0  0  0  0  3  0  0  0  0  0  0
   38.1120   25.9220   32.9060 N   0  0  0  0  0  0  0  0  0  0  0  0
   38.2220   25.4660   34.1570 C   0  0  0  0  0  0  0  0  0  0  0  0
   38.1640   21.2110   31.1380 C   0  0  0  0  0  0  0  0  0  0  0  0
   38.6800   21.2350   29.8470 C   0  0  0  0  0  0  0  0  0  0  0  0
   39.7740   22.0450   29.9560 N   0  0  0  0  0  0  0  0  0  0  0  0
   39.8660   22.4460   31.2060 C   0  0  0  0  0  0  0  0  0  0  0  0
   38.8910   21.9540   31.9770 N   0  0  0  0  0  0  0  0  0  0  0  0
   38.2670   20.7090   28.9850 H   0  0  0  0  0  0  0  0  0  0  0  0
   40.7020   23.1000   31.4200 H   0  0  0  0  0  0  0  0  0  0  0  0
   36.9670   20.4660   31.5500 C   0  0  0  0  0  0  0  0  0  0  0  0
   35.7250   21.0900   31.5990 C   0  0  0  0  0  0  0  0  0  0  0  0
   34.6190   20.3190   32.0030 C   0  0  0  0  0  0  0  0  0  0  0  0
   34.8240   19.0220   32.3180 N   0  0  0  0  0  0  0  0  0  0  0  0
   36.0390   18.4440   32.2600 C   0  0  0  0  0  0  0  0  0  0  0  0
   37.1270   19.1530   31.8770 N   0  0  0  0  0  0  0  0  0  0  0  0
   35.6190   22.1320   31.3360 H   0  0  0  0  0  0  0  0  0  0  0  0
   33.6430   20.7810   32.0500 H   0  0  0  0  0  0  0  0  0  0  0  0
   36.2440   17.4090   32.5050 H   0  0  0  0  0  0  0  0  0  0  0  0
  1  4  1  1  0  0  0
  1  3  1  0  0  0  0
  1  2  1  0  0  0  0
  2  6  1  0  0  0  0
  3  7  1  6  0  0  0
  3  2  1  0  0  0  0
  3  8  1  0  0  0  0
  5  2  1  0  0  0  0
  8  9  1  0  0  0  0
  9 10  2  0  0  0  0
 11 10  1  0  0  0  0
 12 11  1  0  0  0  0
 12 13  1  0  0  0  0
 14 12  2  0  0  0  0
 15 16  2  0  0  0  0
 15 14  1  0  0  0  0
 16 17  1  0  0  0  0
 17  8  1  0  0  0  0
 17 11  2  0  0  0  0
 18 25  1  0  0  0  0
 18 22  1  0  0  0  0
 19 20  1  0  0  0  0
 19 18  2  0  0  0  0
 20 21  2  0  0  0  0
 21 24  1  0  0  0  0
 21 22  1  0  0  0  0
 22  1  1  0  0  0  0
 23 19  1  0  0  0  0
 25 26  2  0  0  0  0
 25 30  1  0  0  0  0
 26 27  1  0  0  0  0
 27 32  1  0  0  0  0
 27 28  2  0  0  0  0
 29 28  1  0  0  0  0
 29 33  1  0  0  0  0
 30 29  2  0  0  0  0
 31 26  1  0  0  0  0
M  END
>  <minimizedAffinity>
-4.35532999

>  <minimizedRMSD>
7.12917709

$$$$
