
     RDKit          3D

 44 48  0  0  0  0  0  0  0  0999 V2000
   38.0804   25.7632   35.4191 C   0  0  1  0  0  0  0  0  0  0  0  0
   38.6432   23.3722   38.2995 C   0  0  0  0  0  0  0  0  0  0  0  0
   38.0342   24.4077   37.5656 C   0  0  0  0  0  0  0  0  0  0  0  0
   38.6432   24.7006   36.2912 C   0  0  0  0  0  0  0  0  0  0  0  0
   39.7491   23.9880   35.8577 N   0  0  0  0  0  0  0  0  0  0  0  0
   40.2619   23.0207   36.6197 C   0  0  0  0  0  0  0  0  0  0  0  0
   39.7096   22.7067   37.8491 N   0  0  0  0  0  0  0  0  0  0  0  0
   38.3382   27.1370   36.0298 C   0  0  0  0  0  0  0  0  0  0  0  0
   38.5874   25.7166   34.0262 C   0  0  0  0  0  0  0  0  0  0  0  0
   37.5805   25.4330   33.0719 N   0  0  0  0  0  0  0  0  0  0  0  0
   37.0516   24.3270   32.5477 C   0  0  0  0  0  0  0  0  0  0  0  0
   36.0522   24.5634   31.6355 C   0  0  0  0  0  0  0  0  0  0  0  0
   35.9565   25.8927   31.5918 N   0  0  0  0  0  0  0  0  0  0  0  0
   36.8709   26.4164   32.4505 C   0  0  0  0  0  0  0  0  0  0  0  0
   36.9920   27.9125   32.5712 C   0  0  1  0  0  0  0  0  0  0  0  0
   35.8711   28.7389   32.0761 C   0  0  0  0  0  0  0  0  0  0  0  0
   36.0521   28.5842   33.5642 C   0  0  2  0  0  0  0  0  0  0  0  0
   36.9640   25.6672   35.4177 H   0  0  0  0  0  0  0  0  0  0  0  0
   38.1434   23.2032   39.2380 H   0  0  0  0  0  0  0  0  0  0  0  0
   37.1867   24.9818   37.8547 H   0  0  0  0  0  0  0  0  0  0  0  0
   41.1245   22.4545   36.2971 H   0  0  0  0  0  0  0  0  0  0  0  0
   38.5843   26.9601   37.0972 H   0  0  0  0  0  0  0  0  0  0  0  0
   37.4404   27.7797   36.0380 H   0  0  0  0  0  0  0  0  0  0  0  0
   39.2032   27.5797   35.5228 H   0  0  0  0  0  0  0  0  0  0  0  0
   39.1146   26.6804   33.7753 H   0  0  0  0  0  0  0  0  0  0  0  0
   39.4054   24.9466   33.9760 H   0  0  0  0  0  0  0  0  0  0  0  0
   37.4136   23.3298   32.8475 H   0  0  0  0  0  0  0  0  0  0  0  0
   35.5255   23.7608   31.1239 H   0  0  0  0  0  0  0  0  0  0  0  0
   38.0062   28.2926   32.4875 H   0  0  0  0  0  0  0  0  0  0  0  0
   34.9498   28.2083   31.6957 H   0  0  0  0  0  0  0  0  0  0  0  0
   36.0116   29.7280   31.6310 H   0  0  0  0  0  0  0  0  0  0  0  0
   35.4525   27.8823   34.1471 H   0  0  0  0  0  0  0  0  0  0  0  0
   36.6379   29.7421   34.2122 N   0  0  0  0  0  0  0  0  0  0  0  0
   36.7636   30.1139   35.4991 C   0  0  0  0  0  0  0  0  0  0  0  0
   37.3936   31.2941   35.5930 N   0  0  0  0  0  0  0  0  0  0  0  0
   37.6877   31.7077   34.3573 C   0  0  0  0  0  0  0  0  0  0  0  0
   38.3260   32.8506   33.9622 C   0  0  0  0  0  0  0  0  0  0  0  0
   38.6766   33.5813   34.7015 H   0  0  0  0  0  0  0  0  0  0  0  0
   38.4960   33.0224   32.6231 N   0  0  0  0  0  0  0  0  0  0  0  0
   38.0387   32.0812   31.7717 C   0  0  0  0  0  0  0  0  0  0  0  0
   37.4141   30.9654   32.1818 N   0  0  0  0  0  0  0  0  0  0  0  0
   37.2158   30.7382   33.4947 C   0  0  0  0  0  0  0  0  0  0  0  0
   36.3854   29.4982   36.3046 H   0  0  0  0  0  0  0  0  0  0  0  0
   38.2381   32.3406   30.7398 H   0  0  0  0  0  0  0  0  0  0  0  0
  1  8  1  0
  1  4  1  0
  3  2  2  0
  4  3  1  0
  5  4  2  0
  5  6  1  0
  6  7  2  0
  7  2  1  0
  9  1  1  0
 10  9  1  0
 11 10  1  0
 12 11  2  0
 13 12  1  0
 13 14  2  0
 14 15  1  0
 14 10  1  0
 15 17  1  0
 16 15  1  0
 16 17  1  0
  1 18  1  6
  2 19  1  0
  3 20  1  0
  6 21  1  0
  8 22  1  0
  8 23  1  0
  8 24  1  0
  9 25  1  0
  9 26  1  0
 11 27  1  0
 12 28  1  0
 15 29  1  1
 16 30  1  0
 16 31  1  0
 17 32  1  1
 33 34  1  0
 34 35  2  0
 35 36  1  0
 36 37  2  0
 37 38  1  0
 37 39  1  0
 39 40  2  0
 40 41  1  0
 41 42  2  0
 42 33  1  0
 42 36  1  0
 34 43  1  0
 40 44  1  0
 17 33  1  0
M  ISO  8  18   8  19  14  20  14  21  14  22   8  23   8  24   8  25   8
M  ISO  8  26   8  27  14  28  14  29  13  30  13  31  13  32  13  38  14
M  END
>  <DihAtoms>  (1) 
14,16,32,33

>  <DihDeg>  (1) 
-8.61548235329225

$$$$
