REMARK  Name = 
REMARK  5 active torsions:
REMARK  status: ('A' for Active; 'I' for Inactive)
REMARK    1  A    between atoms: C_2  and  C_7
REMARK    2  A    between atoms: C_3  and  C_11
REMARK    3  A    between atoms: C_11  and  C_12
REMARK    4  A    between atoms: C_12  and  C_13
REMARK    5  A    between atoms: C_15  and  N_26
REMARK                            x       y       z     vdW  Elec       q    Type
REMARK                         _______ _______ _______ _____ _____    ______ ____
ROOT
ATOM      1  C   UNL     1      39.025  25.099  35.717  0.00  0.00    +0.000 C 
ATOM      2  H   UNL     1      39.626  25.704  36.458  0.00  0.00    +0.000 HD
ATOM      3  H   UNL     1      38.792  25.829  34.919  0.00  0.00    +0.000 HD
ENDROOT
BRANCH   1   4
ATOM      4  C   UNL     1      37.775  24.653  36.490  0.00  0.00    +0.000 C 
ATOM      5  C   UNL     1      38.014  24.382  37.929  0.00  0.00    +0.000 C 
ATOM      6  C   UNL     1      37.553  23.330  36.955  0.00  0.00    +0.000 C 
ATOM      7  H   UNL     1      36.950  25.355  36.294  0.00  0.00    +0.000 HD
ATOM      8  H   UNL     1      38.994  24.518  38.316  0.00  0.00    +0.000 HD
ATOM      9  H   UNL     1      37.226  24.721  38.669  0.00  0.00    +0.000 HD
ATOM     10  H   UNL     1      37.975  22.426  37.206  0.00  0.00    +0.000 HD
BRANCH   6  11
ATOM     11  N   UNL     1      36.087  23.025  36.995  0.00  0.00    +0.000 N 
ATOM     12  C   UNL     1      35.502  21.832  37.184  0.00  0.00    +0.000 A 
ATOM     13  N   UNL     1      34.168  22.016  37.146  0.00  0.00    +0.000 NA
ATOM     14  C   UNL     1      33.897  23.303  36.935  0.00  0.00    +0.000 A 
ATOM     15  C   UNL     1      32.806  24.136  36.793  0.00  0.00    +0.000 A 
ATOM     16  H   UNL     1      31.822  23.656  36.864  0.00  0.00    +0.000 HD
ATOM     17  N   UNL     1      32.873  25.457  36.579  0.00  0.00    +0.000 NA
ATOM     18  C   UNL     1      34.072  26.041  36.492  0.00  0.00    +0.000 A 
ATOM     19  N   UNL     1      35.189  25.281  36.623  0.00  0.00    +0.000 NA
ATOM     20  C   UNL     1      35.128  23.958  36.837  0.00  0.00    +0.000 A 
ENDBRANCH   6  11
ENDBRANCH   1   4
BRANCH   1  21
ATOM     21  C   UNL     1      39.789  23.914  35.376  0.00  0.00    +0.000 C 
ATOM     22  H   UNL     1      39.766  23.939  34.221  0.00  0.00    +0.000 HD
ATOM     23  H   UNL     1      39.230  23.034  35.540  0.00  0.00    +0.000 HD
BRANCH  21  26
ATOM     24  C   UNL     1      43.122  23.329  36.540  0.00  0.00    +0.000 A 
ATOM     25  C   UNL     1      41.730  23.109  36.399  0.00  0.00    +0.000 A 
ATOM     26  C   UNL     1      41.176  24.041  35.624  0.00  0.00    +0.000 A 
ATOM     27  N   UNL     1      41.902  25.077  35.048  0.00  0.00    +0.000 NA
ATOM     28  C   UNL     1      43.206  25.223  35.223  0.00  0.00    +0.000 A 
ATOM     29  N   UNL     1      43.820  24.341  35.975  0.00  0.00    +0.000 NA
ATOM     30  H   UNL     1      43.774  22.671  37.143  0.00  0.00    +0.000 HD
ATOM     31  H   UNL     1      43.683  26.033  34.753  0.00  0.00    +0.000 HD
BRANCH  25  32
ATOM     32  C   UNL     1      41.239  21.971  37.085  0.00  0.00    +0.000 C 
ATOM     33  F   UNL     1      40.476  22.315  38.229  0.00  0.00    +0.000 F 
ATOM     34  F   UNL     1      42.031  21.191  37.841  0.00  0.00    +0.000 F 
ATOM     35  F   UNL     1      40.150  21.284  36.541  0.00  0.00    +0.000 F 
ENDBRANCH  25  32
ENDBRANCH  21  26
ENDBRANCH   1  21
TORSDOF 5
