
 OpenBabel03262519563D

 33 37  0  0  1  0  0  0  0  0999 V2000
   37.1450   21.4160   34.0010 C   0  0  1  0  0  0  0  0  0  0  0  0
   35.9410   21.0960   34.7650 C   0  0  0  0  0  0  0  0  0  0  0  0
   35.8740   21.0190   33.2650 C   0  0  2  0  0  0  0  0  0  0  0  0
   37.9860   20.6860   34.0120 H   0  0  0  0  0  0  0  0  0  0  0  0
   35.4070   21.9120   35.2710 H   0  0  0  0  0  0  0  0  0  0  0  0
   35.8760   20.1340   35.2840 H   0  0  0  0  0  0  0  0  0  0  0  0
   35.2560   21.7790   32.7810 H   0  0  0  0  0  0  0  0  0  0  0  0
   35.9380   19.7390   32.6010 N   0  0  0  0  0  0  0  0  0  0  0  0
   35.3790   18.5740   32.9670 C   0  0  0  0  0  3  0  0  0  0  0  0
   35.7030   17.6280   32.0400 N   0  0  0  0  0  0  0  0  0  0  0  0
   36.4690   18.1840   31.0820 C   0  0  0  0  0  0  0  0  0  0  0  0
   37.1000   17.7940   29.9180 C   0  0  0  0  0  0  0  0  0  0  0  0
   37.0000   16.7590   29.6180 H   0  0  0  0  0  0  0  0  0  0  0  0
   37.8130   18.6730   29.1820 N   0  0  0  0  0  0  0  0  0  0  0  0
   37.9440   19.9660   29.5470 C   0  0  0  0  0  3  0  0  0  0  0  0
   37.3280   20.3400   30.6800 N   0  0  0  0  0  0  0  0  0  0  0  0
   36.6100   19.5170   31.4470 C   0  0  0  0  0  0  0  0  0  0  0  0
   38.1190   23.7010   34.4720 C   0  0  0  0  0  0  0  0  0  0  0  0
   38.3460   24.8760   33.7660 C   0  0  0  0  0  0  0  0  0  0  0  0
   37.8790   24.5910   32.5150 N   0  0  0  0  0  0  0  0  0  0  0  0
   37.4270   23.3560   32.5150 C   0  0  0  0  0  0  0  0  0  0  0  0
   37.5530   22.7620   33.7080 N   0  0  0  0  0  0  0  0  0  0  0  0
   38.7950   25.7850   34.1670 H   0  0  0  0  0  0  0  0  0  0  0  0
   37.0270   23.0100   31.5710 H   0  0  0  0  0  0  0  0  0  0  0  0
   38.4520   23.4940   35.8880 C   0  0  0  0  0  0  0  0  0  0  0  0
   39.6620   22.9130   36.2540 C   0  0  0  0  0  0  0  0  0  0  0  0
   39.9190   22.7430   37.6270 C   0  0  0  0  0  0  0  0  0  0  0  0
   38.9810   23.1520   38.5090 N   0  0  0  0  0  0  0  0  0  0  0  0
   37.8180   23.7120   38.1250 C   0  0  0  0  0  0  0  0  0  0  0  0
   37.5350   23.8920   36.8130 N   0  0  0  0  0  0  0  0  0  0  0  0
   40.3760   22.6040   35.5050 H   0  0  0  0  0  0  0  0  0  0  0  0
   40.8520   22.2940   37.9380 H   0  0  0  0  0  0  0  0  0  0  0  0
   37.0430   24.0520   38.8000 H   0  0  0  0  0  0  0  0  0  0  0  0
  1  4  1  1  0  0  0
  1  2  1  0  0  0  0
  2  5  1  0  0  0  0
  2  6  1  0  0  0  0
  3  7  1  6  0  0  0
  3  1  1  0  0  0  0
  3  2  1  0  0  0  0
  8  9  1  0  0  0  0
  8  3  1  0  0  0  0
 10  9  2  0  0  0  0
 11 17  1  0  0  0  0
 11 10  1  0  0  0  0
 12 11  2  0  0  0  0
 13 12  1  0  0  0  0
 14 15  2  0  0  0  0
 14 12  1  0  0  0  0
 15 16  1  0  0  0  0
 16 17  2  0  0  0  0
 17  8  1  0  0  0  0
 18 25  1  0  0  0  0
 19 23  1  0  0  0  0
 19 18  2  0  0  0  0
 20 19  1  0  0  0  0
 21 20  2  0  0  0  0
 21 22  1  0  0  0  0
 22  1  1  0  0  0  0
 22 18  1  0  0  0  0
 24 21  1  0  0  0  0
 25 26  2  0  0  0  0
 25 30  1  0  0  0  0
 26 27  1  0  0  0  0
 27 32  1  0  0  0  0
 27 28  2  0  0  0  0
 29 28  1  0  0  0  0
 29 33  1  0  0  0  0
 30 29  2  0  0  0  0
 31 26  1  0  0  0  0
M  END
>  <minimizedAffinity>
-5.03105497

>  <minimizedRMSD>
0.715617895

$$$$
