
 OpenBabel03262519253D

 46 52  0  0  0  0  0  0  0  0999 V2000
   38.6500   23.1880   32.7190 C   0  0  0  0  0  0  0  0  0  0  0  0
   38.5310   21.9190   33.2730 C   0  0  0  0  0  0  0  0  0  0  0  0
   37.3400   21.1940   33.2290 C   0  0  0  0  0  0  0  0  0  0  0  0
   36.2230   21.7450   32.6170 C   0  0  0  0  0  0  0  0  0  0  0  0
   36.3130   23.0040   32.0600 C   0  0  0  0  0  0  0  0  0  0  0  0
   35.2100   23.5590   31.4590 C   0  0  0  0  0  0  0  0  0  0  0  0
   35.2380   24.8080   30.8950 C   0  0  0  0  0  0  0  0  0  0  0  0
   36.4410   25.4990   30.9510 C   0  0  0  0  0  0  0  0  0  0  0  0
   37.5360   24.9120   31.5610 C   0  0  0  0  0  0  0  0  0  0  0  0
   37.5190   23.6770   32.1290 C   0  0  0  0  0  0  0  0  0  0  0  0
   39.4380   21.5240   33.7450 H   0  0  0  0  0  0  0  0  0  0  0  0
   37.2910   20.2130   33.6710 H   0  0  0  0  0  0  0  0  0  0  0  0
   35.3100   21.1470   32.6060 H   0  0  0  0  0  0  0  0  0  0  0  0
   34.3140   22.9580   31.4560 H   0  0  0  0  0  0  0  0  0  0  0  0
   34.2930   25.1310   30.4530 H   0  0  0  0  0  0  0  0  0  0  0  0
   36.3140   26.4650   30.4690 H   0  0  0  0  0  0  0  0  0  0  0  0
   38.5770   25.8590   31.3560 N   0  0  0  0  0  0  0  0  0  0  0  0
   39.1710   26.9330   31.8880 C   0  0  0  0  0  0  0  0  0  0  0  0
   40.1380   27.4640   31.1420 N   0  0  0  0  0  0  0  0  0  0  0  0
   40.2760   26.7640   30.0050 C   0  0  0  0  0  0  0  0  0  0  0  0
   41.1050   26.8900   28.9270 C   0  0  0  0  0  0  0  0  0  0  0  0
   41.8040   27.7040   28.9570 H   0  0  0  0  0  0  0  0  0  0  0  0
   40.9430   25.9760   27.9550 N   0  0  0  0  0  0  0  0  0  0  0  0
   40.0230   24.9980   28.0350 C   0  0  0  0  0  0  0  0  0  0  0  0
   39.2320   24.9080   29.1050 N   0  0  0  0  0  0  0  0  0  0  0  0
   39.3020   25.7800   30.1590 C   0  0  0  0  0  0  0  0  0  0  0  0
   39.8880   23.9080   32.7980 C   0  0  0  0  0  0  0  0  0  0  0  0
   40.2070   24.7750   33.8650 C   0  0  0  0  0  0  0  0  0  0  0  0
   41.4490   25.4200   33.8410 C   0  0  0  0  0  0  0  0  0  0  0  0
   42.3000   25.1850   32.7960 N   0  0  0  0  0  0  0  0  0  0  0  0
   41.9620   24.3430   31.7890 C   0  0  0  0  0  0  0  0  0  0  0  0
   40.7980   23.7410   31.8120 N   0  0  0  0  0  0  0  0  0  0  0  0
   41.7140   26.0940   34.6540 H   0  0  0  0  0  0  0  0  0  0  0  0
   42.6280   24.1540   30.9650 H   0  0  0  0  0  0  0  0  0  0  0  0
   39.3110   24.9510   34.9080 N   0  0  0  0  0  0  0  0  0  0  0  0
   38.3170   25.8460   34.9560 C   0  0  0  0  0  0  0  0  0  0  0  0
   37.6210   25.7660   36.1110 N   0  0  0  0  0  0  0  0  0  0  0  0
   38.2060   24.7680   36.8280 C   0  0  0  0  0  0  0  0  0  0  0  0
   37.9590   24.2180   38.0610 C   0  0  0  0  0  0  0  0  0  0  0  0
   38.6810   23.2070   38.5880 N   0  0  0  0  0  0  0  0  0  0  0  0
   39.6950   22.7510   37.8130 C   0  0  0  0  0  0  0  0  0  0  0  0
   39.9210   23.2970   36.6220 N   0  0  0  0  0  0  0  0  0  0  0  0
   39.2470   24.2820   36.0630 C   0  0  0  0  0  0  0  0  0  0  0  0
   37.9180   26.6110   34.3220 H   0  0  0  0  0  0  0  0  0  0  0  0
   37.1160   24.6640   38.6000 H   0  0  0  0  0  0  0  0  0  0  0  0
   40.3360   21.9360   38.1540 H   0  0  0  0  0  0  0  0  0  0  0  0
  1 27  1  0  0  0  0
  1  2  1  0  0  0  0
  2 11  1  0  0  0  0
  3  2  2  0  0  0  0
  3 12  1  0  0  0  0
  4  3  1  0  0  0  0
  5 10  1  0  0  0  0
  5  4  2  0  0  0  0
  6  5  1  0  0  0  0
  7  8  1  0  0  0  0
  7  6  2  0  0  0  0
  8  9  2  0  0  0  0
  9 10  1  0  0  0  0
 10  1  2  0  0  0  0
 13  4  1  0  0  0  0
 14  6  1  0  0  0  0
 15  7  1  0  0  0  0
 16  8  1  0  0  0  0
 17  9  1  0  0  0  0
 17 18  1  0  0  0  0
 19 18  2  0  0  0  0
 20 26  1  0  0  0  0
 20 19  1  0  0  0  0
 21 22  1  0  0  0  0
 21 20  2  0  0  0  0
 23 24  2  0  0  0  0
 23 21  1  0  0  0  0
 24 25  1  0  0  0  0
 25 26  2  0  0  0  0
 26 17  1  0  0  0  0
 27 28  1  0  0  0  0
 28 35  1  0  0  0  0
 29 28  2  0  0  0  0
 29 33  1  0  0  0  0
 30 29  1  0  0  0  0
 31 32  1  0  0  0  0
 31 30  2  0  0  0  0
 32 27  2  0  0  0  0
 34 31  1  0  0  0  0
 35 36  1  0  0  0  0
 35 43  1  0  0  0  0
 36 37  2  0  0  0  0
 37 38  1  0  0  0  0
 38 39  1  0  0  0  0
 39 40  2  0  0  0  0
 39 45  1  0  0  0  0
 41 46  1  0  0  0  0
 41 40  1  0  0  0  0
 42 41  2  0  0  0  0
 43 42  1  0  0  0  0
 43 38  2  0  0  0  0
 44 36  1  0  0  0  0
M  END
>  <minimizedAffinity>
-6.17108536

>  <minimizedRMSD>
1.82257879

$$$$
