
 OpenBabel03262516463D

 38 42  0  0  0  0  0  0  0  0999 V2000
   37.5700   22.0510   34.2750 C   0  0  0  0  0  0  0  0  0  0  0  0
   38.5030   23.0840   34.0860 C   0  0  0  0  0  0  0  0  0  0  0  0
   38.8900   23.8300   35.1790 C   0  0  0  0  0  0  0  0  0  0  0  0
   38.3250   23.5050   36.3970 N   0  0  0  0  0  0  0  0  0  0  0  0
   37.4400   22.5220   36.5560 C   0  0  0  0  0  0  0  0  0  0  0  0
   37.0620   21.7970   35.5020 N   0  0  0  0  0  0  0  0  0  0  0  0
   38.8690   23.2330   33.0750 H   0  0  0  0  0  0  0  0  0  0  0  0
   37.0400   22.3280   37.5490 H   0  0  0  0  0  0  0  0  0  0  0  0
   37.1060   21.2290   33.2290 N   0  0  0  0  0  0  0  0  0  0  0  0
   35.7800   21.1380   32.9250 C   0  0  0  0  0  0  0  0  0  0  0  0
   35.5650   20.2960   31.8900 N   0  0  0  0  0  0  0  0  0  0  0  0
   36.7660   19.8220   31.5040 C   0  0  0  0  0  0  0  0  0  0  0  0
   37.2340   18.9430   30.5260 C   0  0  0  0  0  0  0  0  0  0  0  0
   38.5510   18.6890   30.4200 N   0  0  0  0  0  0  0  0  0  0  0  0
   39.4220   19.2890   31.2610 C   0  0  0  0  0  0  0  0  0  0  0  0
   39.0100   20.1500   32.2260 N   0  0  0  0  0  0  0  0  0  0  0  0
   37.6840   20.4110   32.3400 C   0  0  0  0  0  0  0  0  0  0  0  0
   36.2070   18.3940   29.7220 N   0  0  0  0  0  0  0  0  0  0  0  0
   34.8820   21.5910   33.3300 H   0  0  0  0  0  0  0  0  0  0  0  0
   40.4810   19.0760   31.1660 H   0  0  0  0  0  0  0  0  0  0  0  0
   35.2780   18.1540   30.0810 H   0  0  0  0  0  0  0  0  0  0  0  0
   36.5420   18.2850   28.7500 H   0  0  0  0  0  0  0  0  0  0  0  0
   39.8600   24.9030   34.9850 C   0  0  0  0  0  0  0  0  0  0  0  0
   39.4790   26.2310   34.7180 C   0  0  0  0  0  0  0  0  0  0  0  0
   40.6460   26.9180   34.6020 N   0  0  0  0  0  0  0  0  0  0  0  0
   41.6540   26.0340   34.7940 C   0  0  0  0  0  0  0  0  0  0  0  0
   41.1870   24.8190   35.0240 N   0  0  0  0  0  0  0  0  0  0  0  0
   38.4770   26.5740   34.6330 H   0  0  0  0  0  0  0  0  0  0  0  0
   42.6730   26.3960   34.7400 H   0  0  0  0  0  0  0  0  0  0  0  0
   41.9820   23.6640   35.2650 C   0  0  0  0  0  0  0  0  0  0  0  0
   42.5290   23.0980   34.1130 C   0  0  0  0  0  0  0  0  0  0  0  0
   42.3740   23.4900   33.1040 H   0  0  0  0  0  0  0  0  0  0  0  0
   43.3280   21.9610   34.2200 C   0  0  0  0  0  0  0  0  0  0  0  0
   43.6000   21.3670   35.4580 C   0  0  0  0  0  0  0  0  0  0  0  0
   44.2190   20.4860   35.5410 H   0  0  0  0  0  0  0  0  0  0  0  0
   43.0390   21.9570   36.5830 C   0  0  0  0  0  0  0  0  0  0  0  0
   43.2320   21.5190   37.5550 H   0  0  0  0  0  0  0  0  0  0  0  0
   42.2460   23.0820   36.4990 C   0  0  0  0  0  0  0  0  0  0  0  0
  1  6  1  0  0  0  0
  2  1  2  0  0  0  0
  2  3  1  0  0  0  0
  3  4  2  0  0  0  0
  4  5  1  0  0  0  0
  5  8  1  0  0  0  0
  6  5  2  0  0  0  0
  7  2  1  0  0  0  0
  9  1  1  0  0  0  0
 10  9  1  0  0  0  0
 10 19  1  0  0  0  0
 11 10  2  0  0  0  0
 12 11  1  0  0  0  0
 12 17  1  0  0  0  0
 13 12  2  0  0  0  0
 14 13  1  0  0  0  0
 14 15  2  0  0  0  0
 15 16  1  0  0  0  0
 16 17  2  0  0  0  0
 17  9  1  0  0  0  0
 18 21  1  0  0  0  0
 18 13  1  0  0  0  0
 20 15  1  0  0  0  0
 22 18  1  0  0  0  0
 23 27  1  0  0  0  0
 23  3  1  0  0  0  0
 24 23  2  0  0  0  0
 25 24  1  0  0  0  0
 25 26  2  0  0  0  0
 26 27  1  0  0  0  0
 27 30  1  0  0  0  0
 28 24  1  0  0  0  0
 29 26  1  0  0  0  0
 30 38  1  0  0  0  0
 31 33  1  0  0  0  0
 31 30  2  0  0  0  0
 32 31  1  0  0  0  0
 33 34  2  0  0  0  0
 34 35  1  0  0  0  0
 34 36  1  0  0  0  0
 36 37  1  0  0  0  0
 38 36  2  0  0  0  0
M  END
>  <minimizedAffinity>
-5.14134169

>  <minimizedRMSD>
3.93535399

$$$$
