
     RDKit          3D

 35 39  0  0  0  0  0  0  0  0999 V2000
   38.0347   23.4733   34.6138 C   0  0  0  0  0  0  0  0  0  0  0  0
   38.2648   24.5700   33.7921 C   0  0  0  0  0  0  0  0  0  0  0  0
   37.7570   24.1775   32.5870 N   0  0  0  0  0  0  0  0  0  0  0  0
   37.2797   22.9584   32.7194 C   0  0  0  0  0  0  0  0  0  0  0  0
   37.4288   22.4786   33.9593 N   0  0  0  0  0  0  0  0  0  0  0  0
   38.4047   23.3954   36.0339 C   0  0  0  0  0  0  0  0  0  0  0  0
   39.5986   22.7976   36.4237 C   0  0  0  0  0  0  0  0  0  0  0  0
   39.8928   22.7560   37.7990 C   0  0  0  0  0  0  0  0  0  0  0  0
   39.0039   23.2962   38.6601 N   0  0  0  0  0  0  0  0  0  0  0  0
   37.8546   23.8690   38.2529 C   0  0  0  0  0  0  0  0  0  0  0  0
   37.5368   23.9280   36.9376 N   0  0  0  0  0  0  0  0  0  0  0  0
   37.0019   21.1774   34.3918 C   0  0  1  0  0  0  0  0  0  0  0  0
   35.8436   20.9627   35.2566 C   0  0  0  0  0  0  0  0  0  0  0  0
   35.6732   20.7648   33.7767 C   0  0  2  0  0  0  0  0  0  0  0  0
   38.7441   25.5032   34.0923 H   0  0  0  0  0  0  0  0  0  0  0  0
   36.8457   22.5330   31.8232 H   0  0  0  0  0  0  0  0  0  0  0  0
   40.2736   22.3809   35.6911 H   0  0  0  0  0  0  0  0  0  0  0  0
   40.8147   22.2967   38.1282 H   0  0  0  0  0  0  0  0  0  0  0  0
   37.1180   24.3120   38.9109 H   0  0  0  0  0  0  0  0  0  0  0  0
   37.8199   20.4207   34.4089 H   0  0  0  0  0  0  0  0  0  0  0  0
   35.3701   21.8363   35.7258 H   0  0  0  0  0  0  0  0  0  0  0  0
   35.7870   20.0500   35.8588 H   0  0  0  0  0  0  0  0  0  0  0  0
   35.0457   21.5031   33.2724 H   0  0  0  0  0  0  0  0  0  0  0  0
   35.6542   19.4335   33.2209 N   0  0  0  0  0  0  0  0  0  0  0  0
   34.6262   18.5721   33.1372 C   0  0  0  0  0  0  0  0  0  0  0  0
   35.0658   17.4291   32.5361 N   0  0  0  0  0  0  0  0  0  0  0  0
   36.3717   17.5565   32.2351 C   0  0  0  0  0  0  0  0  0  0  0  0
   37.3671   16.8022   31.6469 C   0  0  0  0  0  0  0  0  0  0  0  0
   37.1051   15.8124   31.3010 H   0  0  0  0  0  0  0  0  0  0  0  0
   38.6205   17.2855   31.5102 N   0  0  0  0  0  0  0  0  0  0  0  0
   38.9590   18.5199   31.9384 C   0  0  0  0  0  0  0  0  0  0  0  0
   37.9870   19.2495   32.5097 N   0  0  0  0  0  0  0  0  0  0  0  0
   36.7317   18.8248   32.6717 C   0  0  0  0  0  0  0  0  0  0  0  0
   33.6146   18.7526   33.4879 H   0  0  0  0  0  0  0  0  0  0  0  0
   39.9304   18.9799   31.8683 H   0  0  0  0  0  0  0  0  0  0  0  0
  1  6  1  0
  2  1  2  0
  3  4  2  0
  3  2  1  0
  4  5  1  0
  5 12  1  0
  5  1  1  0
  6  7  2  0
  6 11  1  0
  7  8  1  0
  8  9  2  0
 10  9  1  0
 11 10  2  0
 12 13  1  0
 14 12  1  0
 14 13  1  0
  2 15  1  0
  4 16  1  0
  7 17  1  0
  8 18  1  0
 10 19  1  0
 12 20  1  1
 13 21  1  0
 13 22  1  0
 14 23  1  6
 24 25  1  0
 25 26  2  0
 26 27  1  0
 27 28  2  0
 28 29  1  0
 28 30  1  0
 30 31  2  0
 31 32  1  0
 32 33  2  0
 33 24  1  0
 33 27  1  0
 25 34  1  0
 31 35  1  0
 14 24  1  0
M  ISO  8  15  14  16  14  17  14  18  14  19  14  20  13  21  13  22  13
M  ISO  2  23  13  29  14
M  END
>  <DihAtoms>  (1) 
11,13,23,24

>  <DihDeg>  (1) 
88.75011297551323

$$$$
