
 OpenBabel03262519183D

 39 42  0  0  0  0  0  0  0  0999 V2000
   36.3330   28.2040   33.7160 C   0  0  0  0  0  0  0  0  0  0  0  0
   35.7550   29.1000   34.6140 C   0  0  0  0  0  0  0  0  0  0  0  0
   34.8880   29.9970   34.0860 C   0  0  0  0  0  0  0  0  0  0  0  0
   34.6410   29.9700   32.7430 C   0  0  0  0  0  0  0  0  0  0  0  0
   35.7060   28.5660   32.1270 S   0  0  0  0  0  0  0  0  0  0  0  0
   35.9790   29.0930   35.6920 H   0  0  0  0  0  0  0  0  0  0  0  0
   37.4750   25.9600   33.4230 C   0  0  0  0  0  0  0  0  0  0  0  0
   37.2840   27.1710   34.1100 C   0  0  0  0  0  0  0  0  0  0  0  0
   38.0250   27.4540   35.2540 C   0  0  0  0  0  0  0  0  0  0  0  0
   38.9120   26.4900   35.6200 N   0  0  0  0  0  0  0  0  0  0  0  0
   39.0960   25.3260   34.9600 C   0  0  0  0  0  0  0  0  0  0  0  0
   38.3620   25.0860   33.8580 N   0  0  0  0  0  0  0  0  0  0  0  0
   36.8460   25.8560   32.5580 H   0  0  0  0  0  0  0  0  0  0  0  0
   37.9240   28.3660   35.8260 H   0  0  0  0  0  0  0  0  0  0  0  0
   40.0870   24.3870   35.4830 C   0  0  0  0  0  0  0  0  0  0  0  0
   41.3240   24.4930   34.9800 C   0  0  0  0  0  0  0  0  0  0  0  0
   42.3070   23.1710   35.8730 S   0  0  0  0  0  0  0  0  0  0  0  0
   40.6930   22.7020   36.8340 C   0  0  0  0  0  0  0  0  0  0  0  0
   40.0260   23.4500   36.3650 N   0  0  0  0  0  0  0  0  0  0  0  0
   40.6120   21.6700   37.8170 N   0  0  0  0  0  0  0  0  0  0  0  0
   41.9430   25.1210   34.1990 H   0  0  0  0  0  0  0  0  0  0  0  0
   40.3560   20.6650   37.6780 H   0  0  0  0  0  0  0  0  0  0  0  0
   40.8410   21.9680   38.8010 H   0  0  0  0  0  0  0  0  0  0  0  0
   33.8480   30.7010   31.8120 C   0  0  0  0  0  0  0  0  0  0  0  0
   34.3370   31.4820   31.0120 O   0  0  0  0  0  0  0  0  0  0  0  0
   32.4200   30.5260   31.8000 N   0  0  0  0  0  0  0  0  0  0  0  0
   31.8520   31.3920   31.9280 H   0  0  0  0  0  0  0  0  0  0  0  0
   31.8210   29.6830   31.6850 H   0  0  0  0  0  0  0  0  0  0  0  0
   33.9950   31.2740   34.9720 S   0  0  0  0  0  0  0  0  0  0  0  0
   29.8810   30.0200   36.5360 C   0  0  0  0  0  0  0  0  0  0  0  0
   30.3420   31.3190   36.4880 C   0  0  0  0  0  0  0  0  0  0  0  0
   31.6230   31.5930   35.9920 C   0  0  0  0  0  0  0  0  0  0  0  0
   32.4600   30.5650   35.5360 C   0  0  0  0  0  0  0  0  0  0  0  0
   31.9720   29.2780   35.5960 C   0  0  0  0  0  0  0  0  0  0  0  0
   30.7130   29.0280   36.0850 C   0  0  0  0  0  0  0  0  0  0  0  0
   28.3640   28.6830   38.1500 H   0  0  0  0  0  0  0  0  0  0  0  0
   28.2950   29.6040   37.1410 S   0  0  0  0  0  0  0  0  0  0  0  0
   27.4100   29.1240   36.0260 O   0  0  0  0  0  0  0  0  0  0  0  0
   27.6390   30.8460   37.7090 O   0  0  0  0  0  0  0  0  0  0  0  0
  1  8  1  0  0  0  0
  1  2  2  0  0  0  0
  2  6  1  0  0  0  0
  3  2  1  0  0  0  0
  3 29  1  0  0  0  0
  4  3  2  0  0  0  0
  5  4  1  0  0  0  0
  5  1  1  0  0  0  0
  7 12  2  0  0  0  0
  7  8  1  0  0  0  0
  8  9  2  0  0  0  0
  9 10  1  0  0  0  0
  9 14  1  0  0  0  0
 11 15  1  0  0  0  0
 11 10  2  0  0  0  0
 12 11  1  0  0  0  0
 13  7  1  0  0  0  0
 15 19  1  0  0  0  0
 16 15  2  0  0  0  0
 16 17  1  0  0  0  0
 17 18  1  0  0  0  0
 18 20  1  0  0  0  0
 19 18  2  0  0  0  0
 20 23  1  0  0  0  0
 21 16  1  0  0  0  0
 22 20  1  0  0  0  0
 24  4  1  0  0  0  0
 25 24  2  0  0  0  0
 26 24  1  0  0  0  0
 26 27  1  0  0  0  0
 28 26  1  0  0  0  0
 29 33  1  0  0  0  0
 30 37  1  0  0  0  0
 31 30  1  0  0  0  0
 32 31  2  0  0  0  0
 33 34  2  0  0  0  0
 33 32  1  0  0  0  0
 34 35  1  0  0  0  0
 35 30  2  0  0  0  0
 37 39  2  0  0  0  0
 37 36  1  0  0  0  0
 38 37  2  0  0  0  0
M  END
>  <minimizedAffinity>
-5.83714056

>  <minimizedRMSD>
2.26499581

$$$$
