
 OpenBabel03262514523D

 17 18  0  0  0  0  0  0  0  0999 V2000
   39.9560   22.7000   37.7160 C   0  0  0  0  0  0  0  0  0  0  0  0
   39.0640   23.3350   38.5860 C   0  0  0  0  0  0  0  0  0  0  0  0
   37.7550   23.5590   38.1280 C   0  0  0  0  0  0  0  0  0  0  0  0
   37.4490   23.1450   36.8780 N   0  0  0  0  0  0  0  0  0  0  0  0
   38.3190   22.5380   36.0600 C   0  0  0  0  0  0  0  0  0  0  0  0
   39.5880   22.3110   36.4790 N   0  0  0  0  0  0  0  0  0  0  0  0
   37.9950   22.1030   34.7420 N   0  0  0  0  0  0  0  0  0  0  0  0
   38.5510   22.1390   33.5120 C   0  0  0  0  0  0  0  0  0  0  0  0
   37.7170   21.5320   32.6460 N   0  0  0  0  0  0  0  0  0  0  0  0
   36.6480   21.1210   33.3420 C   0  0  0  0  0  0  0  0  0  0  0  0
   36.8240   21.4690   34.6100 N   0  0  0  0  0  0  0  0  0  0  0  0
   40.9460   22.5530   38.1180 H   0  0  0  0  0  0  0  0  0  0  0  0
   39.2780   23.6690   39.5720 H   0  0  0  0  0  0  0  0  0  0  0  0
   36.9510   24.0370   38.6790 H   0  0  0  0  0  0  0  0  0  0  0  0
   39.5160   22.6300   33.4710 H   0  0  0  0  0  0  0  0  0  0  0  0
   35.2270   20.2480   32.6630 S   0  0  0  0  0  0  0  0  0  0  0  0
   35.0700   20.6990   31.3300 H   0  0  0  0  0  0  0  0  0  0  0  0
  1 12  1  0  0  0  0
  1  2  1  0  0  0  0
  2 13  1  0  0  0  0
  3  2  2  0  0  0  0
  3 14  1  0  0  0  0
  4  3  1  0  0  0  0
  5  6  1  0  0  0  0
  5  4  2  0  0  0  0
  6  1  2  0  0  0  0
  7  5  1  0  0  0  0
  8  7  1  0  0  0  0
  9 10  1  0  0  0  0
  9  8  2  0  0  0  0
 10 11  2  0  0  0  0
 11  7  1  0  0  0  0
 15  8  1  0  0  0  0
 16 10  1  0  0  0  0
 17 16  1  0  0  0  0
M  END
>  <minimizedAffinity>
-3.81209755

>  <minimizedRMSD>
0.975496054

$$$$
