
 OpenBabel03262510123D

 44 47  0  0  1  0  0  0  0  0999 V2000
   38.4010   27.1260   33.3640 N   0  0  1  0  0  0  0  0  0  0  0  0
   39.5080   27.1360   32.6330 C   0  0  0  0  0  0  0  0  0  0  0  0
   38.9250   27.2950   31.2060 C   0  0  0  0  0  0  0  0  0  0  0  0
   37.4600   26.9360   31.3580 C   0  0  0  0  0  0  0  0  0  0  0  0
   37.3390   26.4590   32.7910 C   0  0  1  0  0  0  0  0  0  0  0  0
   40.2450   26.3450   32.5560 H   0  0  0  0  0  0  0  0  0  0  0  0
   40.1150   28.0760   32.8040 H   0  0  0  0  0  0  0  0  0  0  0  0
   39.3860   26.6180   30.4900 H   0  0  0  0  0  0  0  0  0  0  0  0
   39.0460   28.3260   30.8350 H   0  0  0  0  0  0  0  0  0  0  0  0
   36.8640   27.8590   31.1560 H   0  0  0  0  0  0  0  0  0  0  0  0
   37.1270   26.1980   30.6270 H   0  0  0  0  0  0  0  0  0  0  0  0
   36.3260   26.8520   33.1000 H   0  0  0  0  0  0  0  0  0  0  0  0
   39.3400   24.9250   35.7870 N   0  0  0  0  0  0  0  0  0  0  0  0
   38.1000   25.3350   36.4730 C   0  0  0  0  0  0  0  0  0  0  0  0
   37.4380   26.0670   35.2900 C   0  0  0  0  0  0  0  0  0  0  0  0
   38.4910   26.8480   34.7690 C   0  0  1  0  0  0  0  0  0  0  0  0
   39.6970   26.0160   34.9060 C   0  0  0  0  0  0  0  0  0  0  0  0
   37.5400   24.4450   36.7530 H   0  0  0  0  0  0  0  0  0  0  0  0
   38.3210   26.0400   37.2990 H   0  0  0  0  0  0  0  0  0  0  0  0
   36.7230   26.7680   35.8420 H   0  0  0  0  0  0  0  0  0  0  0  0
   36.8160   25.3630   34.8320 H   0  0  0  0  0  0  0  0  0  0  0  0
   38.6420   27.8030   35.2880 H   0  0  0  0  0  0  0  0  0  0  0  0
   40.5210   26.5680   35.4240 H   0  0  0  0  0  0  0  0  0  0  0  0
   40.0670   25.5360   33.9680 H   0  0  0  0  0  0  0  0  0  0  0  0
   41.5800   22.0690   35.0590 C   0  0  0  0  0  0  0  0  0  0  0  0
   40.8530   23.2530   34.8840 C   0  0  0  0  0  0  0  0  0  0  0  0
   40.0770   23.7530   35.9090 C   0  0  0  0  0  0  0  0  0  0  0  0
   40.0550   23.0640   37.0590 N   0  0  0  0  0  0  0  0  0  0  0  0
   40.7660   21.9100   37.2270 C   0  0  0  0  0  0  0  0  0  0  0  0
   41.5170   21.4210   36.2390 N   0  0  0  0  0  0  0  0  0  0  0  0
   42.1950   21.6750   34.2450 H   0  0  0  0  0  0  0  0  0  0  0  0
   40.9450   23.7260   33.9220 H   0  0  0  0  0  0  0  0  0  0  0  0
   40.7080   21.3920   38.1870 H   0  0  0  0  0  0  0  0  0  0  0  0
   37.3550   25.0490   32.7120 N   0  0  0  0  0  0  0  0  0  0  0  0
   38.2610   24.6170   32.5110 H   0  0  0  0  0  0  0  0  0  0  0  0
   36.3000   24.6180   31.8250 C   0  0  0  0  0  0  0  0  0  0  0  0
   35.3110   25.0270   32.0220 H   0  0  0  0  0  0  0  0  0  0  0  0
   36.5850   25.0500   30.8140 H   0  0  0  0  0  0  0  0  0  0  0  0
   36.2810   23.1490   31.5910 C   0  0  0  0  0  0  0  0  0  0  0  0
   37.2630   22.3500   30.9940 C   0  0  0  0  0  0  0  0  0  0  0  0
   36.8270   21.0620   30.9840 N   0  0  0  0  0  0  0  0  0  0  0  0
   35.6020   21.0130   31.5550 C   0  0  0  0  0  0  0  0  0  0  0  0
   35.2890   22.2660   31.9120 N   0  0  0  0  0  0  0  0  0  0  0  0
   34.3980   22.5520   32.3800 H   0  0  0  0  0  0  0  0  0  0  0  0
  1  2  1  6  0  0  0
  1 16  1  0  0  0  0
  2  7  1  0  0  0  0
  3  4  1  0  0  0  0
  3  2  1  0  0  0  0
  4  5  1  0  0  0  0
  5 12  1  1  0  0  0
  5  1  1  0  0  0  0
  6  2  1  0  0  0  0
  8  3  1  0  0  0  0
  9  3  1  0  0  0  0
 10  4  1  0  0  0  0
 11  4  1  0  0  0  0
 13 27  1  0  0  0  0
 13 14  1  0  0  0  0
 14 18  1  0  0  0  0
 14 19  1  0  0  0  0
 15 20  1  0  0  0  0
 15 14  1  0  0  0  0
 16 17  1  0  0  0  0
 16 22  1  1  0  0  0
 16 15  1  0  0  0  0
 17 23  1  0  0  0  0
 17 13  1  0  0  0  0
 21 15  1  0  0  0  0
 24 17  1  0  0  0  0
 25 30  1  0  0  0  0
 26 25  2  0  0  0  0
 26 27  1  0  0  0  0
 27 28  2  0  0  0  0
 28 29  1  0  0  0  0
 29 33  1  0  0  0  0
 30 29  2  0  0  0  0
 31 25  1  0  0  0  0
 32 26  1  0  0  0  0
 34  5  1  0  0  0  0
 35 34  1  0  0  0  0
 36 37  1  0  0  0  0
 36 34  1  0  0  0  0
 38 36  1  0  0  0  0
 39 36  1  0  0  0  0
 39 43  1  0  0  0  0
 40 39  2  0  0  0  0
 41 40  1  0  0  0  0
 41 42  2  0  0  0  0
 42 43  1  0  0  0  0
 43 44  1  0  0  0  0
M  END
>  <minimizedAffinity>
-4.53818941

>  <minimizedRMSD>
4.61866379

$$$$
