
 OpenBabel03262518393D

 46 49  0  0  0  0  0  0  0  0999 V2000
   37.1370   26.7470   34.3470 C   0  0  0  0  0  0  0  0  0  0  0  0
   37.2160   25.8510   33.2730 C   0  0  0  0  0  0  0  0  0  0  0  0
   36.5920   26.2010   32.0670 C   0  0  0  0  0  0  0  0  0  0  0  0
   35.9500   27.3870   32.0180 N   0  0  0  0  0  0  0  0  0  0  0  0
   35.8820   28.2290   33.0430 C   0  0  0  0  0  0  0  0  0  0  0  0
   36.4740   27.9270   34.2300 N   0  0  0  0  0  0  0  0  0  0  0  0
   37.7250   24.9120   33.3160 H   0  0  0  0  0  0  0  0  0  0  0  0
   36.6600   25.5030   31.2470 H   0  0  0  0  0  0  0  0  0  0  0  0
   37.7860   26.3860   35.6090 C   0  0  0  0  0  0  0  0  0  0  0  0
   38.6510   27.1540   36.0830 O   0  0  0  0  0  0  0  0  0  0  0  0
   37.4170   25.2090   36.2230 O   0  0  0  0  0  0  0  0  0  0  0  0
   39.3380   22.9250   38.1320 N   0  0  0  0  0  0  0  0  0  0  0  0
   38.2920   23.7170   37.9100 N   0  0  0  0  0  0  0  0  0  0  0  0
   38.4110   24.3130   36.6960 C   0  0  0  0  0  0  0  0  0  0  0  0
   39.5750   23.8820   36.1290 C   0  0  0  0  0  0  0  0  0  0  0  0
   40.1280   23.0260   37.0370 C   0  0  0  0  0  0  0  0  0  0  0  0
   39.4740   22.3670   38.9840 H   0  0  0  0  0  0  0  0  0  0  0  0
   39.9180   24.2040   35.1510 H   0  0  0  0  0  0  0  0  0  0  0  0
   41.4180   22.3100   36.8400 C   0  0  0  0  0  0  0  0  0  0  0  0
   42.4520   22.9480   36.2050 C   0  0  0  0  0  0  0  0  0  0  0  0
   43.6010   22.2000   36.0740 C   0  0  0  0  0  0  0  0  0  0  0  0
   43.7720   20.9290   36.5100 N   0  0  0  0  0  0  0  0  0  0  0  0
   42.7190   20.3440   37.1310 C   0  0  0  0  0  0  0  0  0  0  0  0
   41.5700   21.0360   37.2850 N   0  0  0  0  0  0  0  0  0  0  0  0
   42.3730   23.9490   35.8400 H   0  0  0  0  0  0  0  0  0  0  0  0
   44.4620   22.6420   35.5800 H   0  0  0  0  0  0  0  0  0  0  0  0
   42.5930   19.3520   37.5690 H   0  0  0  0  0  0  0  0  0  0  0  0
   35.1550   29.5070   32.8900 C   0  0  0  0  0  0  0  0  0  0  0  0
   35.7870   30.5210   33.8310 C   0  0  0  0  0  0  0  0  0  0  0  0
   35.3750   31.5330   33.6150 H   0  0  0  0  0  0  0  0  0  0  0  0
   35.6050   30.1880   34.8540 H   0  0  0  0  0  0  0  0  0  0  0  0
   36.8680   30.5790   33.5810 H   0  0  0  0  0  0  0  0  0  0  0  0
   33.7240   29.2770   33.2970 C   0  0  0  0  0  0  0  0  0  0  0  0
   33.1250   30.1390   32.9170 H   0  0  0  0  0  0  0  0  0  0  0  0
   33.6710   29.2980   34.4110 H   0  0  0  0  0  0  0  0  0  0  0  0
   33.3110   28.3160   32.9290 H   0  0  0  0  0  0  0  0  0  0  0  0
   35.2250   30.0230   31.4510 C   0  0  0  0  0  0  0  0  0  0  0  0
   34.3590   30.6740   31.2540 H   0  0  0  0  0  0  0  0  0  0  0  0
   35.1750   29.1330   30.7760 H   0  0  0  0  0  0  0  0  0  0  0  0
   36.4270   30.7110   31.3430 O   0  0  0  0  0  0  0  0  0  0  0  0
   36.9340   30.7760   30.0580 C   0  0  0  0  0  0  0  0  0  0  0  0
   37.8300   31.9990   30.0190 C   0  0  0  0  0  0  0  0  0  0  0  0
   38.6910   32.0700   28.7950 C   0  0  0  0  0  0  0  0  0  0  0  0
   39.5340   30.8160   28.6780 C   0  0  0  0  0  0  0  0  0  0  0  0
   38.5800   29.6440   28.6020 C   0  0  0  0  0  0  0  0  0  0  0  0
   37.8350   29.5480   29.9040 C   0  0  0  0  0  0  0  0  0  0  0  0
  1  9  1  0  0  0  0
  2  7  1  0  0  0  0
  2  1  2  0  0  0  0
  3  2  1  0  0  0  0
  4  3  2  0  0  0  0
  4  5  1  0  0  0  0
  5  6  2  0  0  0  0
  6  1  1  0  0  0  0
  8  3  1  0  0  0  0
  9 10  2  0  0  0  0
  9 11  1  0  0  0  0
 11 14  1  0  0  0  0
 12 17  1  0  0  0  0
 13 12  1  0  0  0  0
 14 13  2  0  0  0  0
 15 14  1  0  0  0  0
 15 16  2  0  0  0  0
 16 12  1  0  0  0  0
 18 15  1  0  0  0  0
 19 16  1  0  0  0  0
 19 24  1  0  0  0  0
 20 19  2  0  0  0  0
 21 20  1  0  0  0  0
 21 22  2  0  0  0  0
 22 23  1  0  0  0  0
 23 24  2  0  0  0  0
 23 27  1  0  0  0  0
 25 20  1  0  0  0  0
 26 21  1  0  0  0  0
 28  5  1  0  0  0  0
 28 33  1  0  0  0  0
 28 29  1  0  0  0  0
 29 31  1  0  0  0  0
 30 29  1  0  0  0  0
 32 29  1  0  0  0  0
 33 35  1  0  0  0  0
 34 33  1  0  0  0  0
 36 33  1  0  0  0  0
 37 28  1  0  0  0  0
 38 37  1  0  0  0  0
 39 37  1  0  0  0  0
 40 37  1  0  0  0  0
 41 40  1  0  0  0  0
 42 41  1  0  0  0  0
 43 42  1  0  0  0  0
 44 43  1  0  0  0  0
 45 44  1  0  0  0  0
 45 46  1  0  0  0  0
 46 41  1  0  0  0  0
M  END
>  <minimizedAffinity>
-5.6524024

>  <minimizedRMSD>
0.459661782

$$$$
