REMARK  Name = 
REMARK  4 active torsions:
REMARK  status: ('A' for Active; 'I' for Inactive)
REMARK    1  A    between atoms: C_1  and  C_6
REMARK    2  A    between atoms: N_5  and  C_12
REMARK    3  A    between atoms: C_14  and  C_15
REMARK    4  A    between atoms: C_14  and  C_27
REMARK                            x       y       z     vdW  Elec       q    Type
REMARK                         _______ _______ _______ _____ _____    ______ ____
ROOT
ATOM      1  C   UNL     1      37.867  23.699  33.503  0.00  0.00    +0.000 A 
ATOM      2  C   UNL     1      37.462  22.657  32.668  0.00  0.00    +0.000 A 
ATOM      3  N   UNL     1      37.483  21.563  33.485  0.00  0.00    +0.000 NA
ATOM      4  C   UNL     1      37.873  21.966  34.691  0.00  0.00    +0.000 A 
ATOM      5  N   UNL     1      38.114  23.272  34.728  0.00  0.00    +0.000 N 
ATOM      6  H   UNL     1      37.201  22.743  31.623  0.00  0.00    +0.000 HD
ATOM      7  H   UNL     1      37.936  21.190  35.449  0.00  0.00    +0.000 HD
ENDROOT
BRANCH   1   8
ATOM      8  C   UNL     1      38.013  25.082  33.079  0.00  0.00    +0.000 A 
ATOM      9  C   UNL     1      39.297  25.581  32.771  0.00  0.00    +0.000 A 
ATOM     10  C   UNL     1      39.394  26.930  32.358  0.00  0.00    +0.000 A 
ATOM     11  N   UNL     1      38.244  27.651  32.287  0.00  0.00    +0.000 NA
ATOM     12  C   UNL     1      37.032  27.131  32.593  0.00  0.00    +0.000 A 
ATOM     13  N   UNL     1      36.911  25.856  32.986  0.00  0.00    +0.000 NA
ATOM     14  H   UNL     1      40.131  24.910  32.866  0.00  0.00    +0.000 HD
ATOM     15  H   UNL     1      40.366  27.308  32.124  0.00  0.00    +0.000 HD
ATOM     16  H   UNL     1      36.221  27.834  32.485  0.00  0.00    +0.000 HD
ENDBRANCH   1   8
BRANCH   5  17
ATOM     17  C   UNL     1      38.538  23.952  35.898  0.00  0.00    +0.000 C 
ATOM     18  C   UNL     1      38.062  25.226  36.364  0.00  0.00    +0.000 C 
ATOM     19  C   UNL     1      37.558  23.916  37.029  0.00  0.00    +0.000 C 
ATOM     20  H   UNL     1      39.614  23.715  36.183  0.00  0.00    +0.000 HD
ATOM     21  H   UNL     1      37.308  25.799  35.809  0.00  0.00    +0.000 HD
ATOM     22  H   UNL     1      38.704  25.870  37.007  0.00  0.00    +0.000 HD
BRANCH  19  23
ATOM     23  C   UNL     1      36.064  23.956  36.917  0.00  0.00    +0.000 A 
ATOM     24  C   UNL     1      35.179  25.138  36.918  0.00  0.00    +0.000 A 
ATOM     25  C   UNL     1      33.873  24.809  36.796  0.00  0.00    +0.000 A 
ATOM     26  C   UNL     1      33.395  23.505  36.681  0.00  0.00    +0.000 A 
ATOM     27  S   UNL     1      34.982  22.522  36.746  0.00  0.00    +0.000 S 
ENDBRANCH  19  23
BRANCH  19  28
ATOM     28  C   UNL     1      38.126  23.767  38.426  0.00  0.00    +0.000 C 
ATOM     29  F   UNL     1      37.523  22.700  39.065  0.00  0.00    +0.000 F 
ATOM     30  F   UNL     1      39.514  23.350  38.305  0.00  0.00    +0.000 F 
ATOM     31  F   UNL     1      38.134  24.900  39.142  0.00  0.00    +0.000 F 
ENDBRANCH  19  28
ENDBRANCH   5  17
TORSDOF 4
