
 OpenBabel03262519083D

 33 36  0  0  1  0  0  0  0  0999 V2000
   37.1650   26.9510   34.0250 C   0  0  0  0  0  0  0  0  0  0  0  0
   36.3900   26.9450   34.8340 H   0  0  0  0  0  0  0  0  0  0  0  0
   37.0820   25.9170   33.5810 H   0  0  0  0  0  0  0  0  0  0  0  0
   36.7240   27.8980   32.9990 C   0  0  0  0  0  0  0  0  0  0  0  0
   37.2740   28.2940   31.8240 C   0  0  0  0  0  0  0  0  0  0  0  0
   36.7430   29.2050   30.9490 C   0  0  0  0  0  0  0  0  0  0  0  0
   35.5450   29.7620   31.3040 C   0  0  0  0  0  0  0  0  0  0  0  0
   35.0020   29.3590   32.4810 C   0  0  0  0  0  0  0  0  0  0  0  0
   35.5230   28.4720   33.3300 N   0  0  0  0  0  0  0  0  0  0  0  0
   38.2370   27.7840   31.6340 H   0  0  0  0  0  0  0  0  0  0  0  0
   37.2660   29.4480   30.0400 H   0  0  0  0  0  0  0  0  0  0  0  0
   35.0580   30.4890   30.6700 H   0  0  0  0  0  0  0  0  0  0  0  0
   33.6800   29.9950   32.8370 C   0  0  0  0  0  0  0  0  0  0  0  0
   32.9190   30.8360   31.8970 C   0  0  0  0  0  0  0  0  0  0  0  0
   31.7610   31.2990   32.4360 C   0  0  0  0  0  0  0  0  0  0  0  0
   31.3170   31.0180   33.7480 C   0  0  0  0  0  0  0  0  0  0  0  0
   32.7940   29.9160   34.2950 S   0  0  0  0  0  0  0  0  0  0  0  0
   39.3040   26.1600   35.3550 C   0  0  2  0  0  0  0  0  0  0  0  0
   38.6620   27.3480   35.9800 C   0  0  0  0  0  0  0  0  0  0  0  0
   38.5460   27.1120   34.5060 C   0  0  2  0  0  0  0  0  0  0  0  0
   40.3810   26.0900   35.1270 H   0  0  0  0  0  0  0  0  0  0  0  0
   39.3880   28.0880   36.3820 H   0  0  0  0  0  0  0  0  0  0  0  0
   37.8110   27.1790   36.6670 H   0  0  0  0  0  0  0  0  0  0  0  0
   39.1630   27.8380   33.9030 H   0  0  0  0  0  0  0  0  0  0  0  0
   37.5210   23.4750   37.1070 C   0  0  0  0  0  0  0  0  0  0  0  0
   37.5970   22.3670   36.2600 C   0  0  0  0  0  0  0  0  0  0  0  0
   38.3010   22.5910   35.0310 C   0  0  0  0  0  0  0  0  0  0  0  0
   38.8270   23.8170   34.7840 N   0  0  0  0  0  0  0  0  0  0  0  0
   38.7020   24.8500   35.6770 C   0  0  0  0  0  0  0  0  0  0  0  0
   38.0390   24.6780   36.8610 N   0  0  0  0  0  0  0  0  0  0  0  0
   36.9980   23.3540   38.0500 H   0  0  0  0  0  0  0  0  0  0  0  0
   37.1750   21.4220   36.4850 H   0  0  0  0  0  0  0  0  0  0  0  0
   38.4000   21.7870   34.3300 H   0  0  0  0  0  0  0  0  0  0  0  0
  1 20  1  0  0  0  0
  1  2  1  0  0  0  0
  3  1  1  0  0  0  0
  4  9  1  0  0  0  0
  4  1  1  0  0  0  0
  5  4  2  0  0  0  0
  6  7  2  0  0  0  0
  6  5  1  0  0  0  0
  7  8  1  0  0  0  0
  8 13  1  0  0  0  0
  8  9  2  0  0  0  0
 10  5  1  0  0  0  0
 11  6  1  0  0  0  0
 12  7  1  0  0  0  0
 13 17  1  0  0  0  0
 14 15  1  0  0  0  0
 14 13  2  0  0  0  0
 15 16  2  0  0  0  0
 16 17  1  0  0  0  0
 18 21  1  6  0  0  0
 18 29  1  0  0  0  0
 18 19  1  0  0  0  0
 19 22  1  0  0  0  0
 19 23  1  0  0  0  0
 20 24  1  6  0  0  0
 20 18  1  0  0  0  0
 20 19  1  0  0  0  0
 25 31  1  0  0  0  0
 26 32  1  0  0  0  0
 26 25  2  0  0  0  0
 27 26  1  0  0  0  0
 28 27  2  0  0  0  0
 28 29  1  0  0  0  0
 29 30  2  0  0  0  0
 30 25  1  0  0  0  0
 33 27  1  0  0  0  0
M  END
>  <minimizedAffinity>
-4.96579838

>  <minimizedRMSD>
4.84220028

$$$$
