
 OpenBabel03262519573D

 28 31  0  0  1  0  0  0  0  0999 V2000
   38.0940   23.7590   34.5480 C   0  0  0  0  0  0  0  0  0  0  0  0
   38.2760   24.9590   33.8590 C   0  0  0  0  0  0  0  0  0  0  0  0
   37.8210   24.6750   32.5950 N   0  0  0  0  0  0  0  0  0  0  0  0
   37.4200   23.4160   32.5840 C   0  0  0  0  0  0  0  0  0  0  0  0
   37.5750   22.8120   33.7850 N   0  0  0  0  0  0  0  0  0  0  0  0
   38.6820   25.8540   34.2860 H   0  0  0  0  0  0  0  0  0  0  0  0
   37.0180   22.9750   31.6770 H   0  0  0  0  0  0  0  0  0  0  0  0
   38.4350   23.5520   35.9550 C   0  0  0  0  0  0  0  0  0  0  0  0
   39.6430   22.9410   36.3100 C   0  0  0  0  0  0  0  0  0  0  0  0
   39.9130   22.7710   37.6820 C   0  0  0  0  0  0  0  0  0  0  0  0
   39.0050   23.2000   38.5700 N   0  0  0  0  0  0  0  0  0  0  0  0
   37.8370   23.7910   38.1990 C   0  0  0  0  0  0  0  0  0  0  0  0
   37.5430   23.9720   36.8960 N   0  0  0  0  0  0  0  0  0  0  0  0
   40.3070   22.6310   35.5100 H   0  0  0  0  0  0  0  0  0  0  0  0
   40.8470   22.2980   37.9310 H   0  0  0  0  0  0  0  0  0  0  0  0
   37.1750   24.1010   38.9990 H   0  0  0  0  0  0  0  0  0  0  0  0
   37.2190   21.4530   34.0460 C   0  0  1  0  0  0  0  0  0  0  0  0
   35.9780   21.0650   34.7280 C   0  0  0  0  0  0  0  0  0  0  0  0
   36.0010   20.9930   33.2270 C   0  0  2  0  0  0  0  0  0  0  0  0
   38.0670   20.7340   34.0400 H   0  0  0  0  0  0  0  0  0  0  0  0
   35.9850   20.1360   35.3240 H   0  0  0  0  0  0  0  0  0  0  0  0
   35.3840   21.8720   35.2370 H   0  0  0  0  0  0  0  0  0  0  0  0
   35.4100   21.7440   32.7080 H   0  0  0  0  0  0  0  0  0  0  0  0
   36.0240   19.6730   32.6220 C   0  0  0  0  0  0  0  0  0  0  0  0
   35.3470   18.5370   32.9110 C   0  0  0  0  0  0  0  0  0  0  0  0
   35.5290   17.3830   32.1970 C   0  0  0  0  0  0  0  0  0  0  0  0
   36.4990   17.4990   31.1220 C   0  0  0  0  0  0  0  0  0  0  0  0
   37.0530   19.2260   31.2310 S   0  0  0  0  0  0  0  0  0  0  0  0
  1  8  1  0  0  0  0
  2  6  1  0  0  0  0
  2  1  2  0  0  0  0
  3  2  1  0  0  0  0
  4  3  2  0  0  0  0
  4  5  1  0  0  0  0
  5 17  1  0  0  0  0
  5  1  1  0  0  0  0
  7  4  1  0  0  0  0
  8  9  2  0  0  0  0
  8 13  1  0  0  0  0
  9 10  1  0  0  0  0
 10 15  1  0  0  0  0
 10 11  2  0  0  0  0
 12 11  1  0  0  0  0
 12 16  1  0  0  0  0
 13 12  2  0  0  0  0
 14  9  1  0  0  0  0
 17 20  1  1  0  0  0
 17 18  1  0  0  0  0
 18 22  1  0  0  0  0
 18 21  1  0  0  0  0
 19 23  1  6  0  0  0
 19 17  1  0  0  0  0
 19 18  1  0  0  0  0
 24 25  2  0  0  0  0
 24 19  1  0  0  0  0
 26 25  1  0  0  0  0
 27 28  1  0  0  0  0
 27 26  2  0  0  0  0
 28 24  1  0  0  0  0
M  END
>  <minimizedAffinity>
-4.83468246

>  <minimizedRMSD>
0.722990036

$$$$
