
 OpenBabel03262519573D

 28 31  0  0  1  0  0  0  0  0999 V2000
   38.0640   24.2250   34.5830 C   0  0  0  0  0  0  0  0  0  0  0  0
   38.0830   25.5390   34.1150 C   0  0  0  0  0  0  0  0  0  0  0  0
   37.6660   25.4200   32.8120 N   0  0  0  0  0  0  0  0  0  0  0  0
   37.4340   24.1400   32.5770 C   0  0  0  0  0  0  0  0  0  0  0  0
   37.6720   23.3640   33.6590 N   0  0  0  0  0  0  0  0  0  0  0  0
   38.3680   26.3920   34.6960 H   0  0  0  0  0  0  0  0  0  0  0  0
   37.0920   23.8130   31.6000 H   0  0  0  0  0  0  0  0  0  0  0  0
   38.4340   23.8250   35.9400 C   0  0  0  0  0  0  0  0  0  0  0  0
   39.6650   23.2070   36.1880 C   0  0  0  0  0  0  0  0  0  0  0  0
   39.9630   22.8460   37.5160 C   0  0  0  0  0  0  0  0  0  0  0  0
   39.0580   23.1110   38.4680 N   0  0  0  0  0  0  0  0  0  0  0  0
   37.8670   23.7120   38.2020 C   0  0  0  0  0  0  0  0  0  0  0  0
   37.5460   24.0720   36.9440 N   0  0  0  0  0  0  0  0  0  0  0  0
   40.3260   23.0390   35.3430 H   0  0  0  0  0  0  0  0  0  0  0  0
   40.9150   22.3730   37.6820 H   0  0  0  0  0  0  0  0  0  0  0  0
   37.2080   23.8800   39.0470 H   0  0  0  0  0  0  0  0  0  0  0  0
   37.5010   21.9450   33.6770 C   0  0  1  0  0  0  0  0  0  0  0  0
   36.4060   21.2770   34.3910 C   0  0  0  0  0  0  0  0  0  0  0  0
   36.2460   21.4920   32.9120 C   0  0  2  0  0  0  0  0  0  0  0  0
   38.4140   21.3570   33.4380 H   0  0  0  0  0  0  0  0  0  0  0  0
   36.5890   20.2630   34.7830 H   0  0  0  0  0  0  0  0  0  0  0  0
   35.7980   21.8910   35.1110 H   0  0  0  0  0  0  0  0  0  0  0  0
   35.5160   22.2430   32.6190 H   0  0  0  0  0  0  0  0  0  0  0  0
   36.3330   20.3230   32.0540 C   0  0  0  0  0  0  0  0  0  0  0  0
   36.7740   20.1700   30.7830 C   0  0  0  0  0  3  0  0  0  0  0  0
   36.7650   18.9540   30.1560 C   0  0  0  0  0  3  0  0  0  0  0  0
   36.2460   17.8690   30.9720 C   0  0  0  0  0  3  0  0  0  0  0  0
   35.8260   18.6810   32.5420 S   0  0  0  0  0  0  0  0  0  0  0  0
  1  8  1  0  0  0  0
  2  1  2  0  0  0  0
  2  6  1  0  0  0  0
  3  2  1  0  0  0  0
  4  3  2  0  0  0  0
  4  5  1  0  0  0  0
  5 17  1  0  0  0  0
  5  1  1  0  0  0  0
  7  4  1  0  0  0  0
  8  9  2  0  0  0  0
  8 13  1  0  0  0  0
  9 10  1  0  0  0  0
 10 15  1  0  0  0  0
 10 11  2  0  0  0  0
 12 11  1  0  0  0  0
 12 16  1  0  0  0  0
 13 12  2  0  0  0  0
 14  9  1  0  0  0  0
 17 20  1  6  0  0  0
 17 18  1  0  0  0  0
 18 21  1  0  0  0  0
 18 22  1  0  0  0  0
 19 23  1  6  0  0  0
 19 17  1  0  0  0  0
 19 18  1  0  0  0  0
 24 28  1  0  0  0  0
 24 19  1  0  0  0  0
 25 24  2  0  0  0  0
 26 25  1  0  0  0  0
 26 27  2  0  0  0  0
 27 28  1  0  0  0  0
M  END
>  <minimizedAffinity>
-4.50509787

>  <minimizedRMSD>
1.36148119

$$$$
