
 OpenBabel03262518423D

 28 31  0  0  0  0  0  0  0  0999 V2000
   38.9840   25.5040   30.3100 C   0  0  0  0  0  0  0  0  0  0  0  0
   37.9370   26.3000   30.8010 C   0  0  0  0  0  0  0  0  0  0  0  0
   38.2250   27.2370   31.7740 C   0  0  0  0  0  0  0  0  0  0  0  0
   39.5210   27.3260   32.1950 N   0  0  0  0  0  0  0  0  0  0  0  0
   40.4950   26.5510   31.7040 C   0  0  0  0  0  0  0  0  0  0  0  0
   40.2470   25.6340   30.7610 N   0  0  0  0  0  0  0  0  0  0  0  0
   41.8090   26.7520   32.2370 N   0  0  0  0  0  0  0  0  0  0  0  0
   42.4630   27.7100   31.6620 N   0  0  0  0  0  0  0  0  0  0  0  0
   43.6860   27.8170   32.2350 C   0  0  0  0  0  0  0  0  0  0  0  0
   43.7730   26.8720   33.2060 C   0  0  0  0  0  0  0  0  0  0  0  0
   42.5810   26.2040   33.2000 C   0  0  0  0  0  0  0  0  0  0  0  0
   38.7080   24.5250   29.2990 N   0  0  0  0  0  0  0  0  0  0  0  0
   36.9510   26.1710   30.4230 H   0  0  0  0  0  0  0  0  0  0  0  0
   37.4530   27.8730   32.1830 H   0  0  0  0  0  0  0  0  0  0  0  0
   44.4930   28.5060   32.0070 H   0  0  0  0  0  0  0  0  0  0  0  0
   44.5200   26.5830   33.9060 H   0  0  0  0  0  0  0  0  0  0  0  0
   38.5540   23.4870   29.3910 H   0  0  0  0  0  0  0  0  0  0  0  0
   38.6710   24.9840   28.3520 H   0  0  0  0  0  0  0  0  0  0  0  0
   41.9770   25.0960   33.9510 C   0  0  0  0  0  0  0  0  0  0  0  0
   42.2010   23.7820   33.9560 N   0  0  0  0  0  0  0  0  0  0  0  0
   41.4000   23.1870   34.8080 O   0  0  0  0  0  0  0  0  0  0  0  0
   40.6740   24.1370   35.3340 C   0  0  0  0  0  0  0  0  0  0  0  0
   40.9760   25.3590   34.8490 N   0  0  0  0  0  0  0  0  0  0  0  0
   39.6500   23.9110   36.3340 C   0  0  0  0  0  0  0  0  0  0  0  0
   38.3740   24.5020   36.4340 C   0  0  0  0  0  0  0  0  0  0  0  0
   37.6070   24.1110   37.4760 C   0  0  0  0  0  0  0  0  0  0  0  0
   38.0480   23.1780   38.4000 C   0  0  0  0  0  0  0  0  0  0  0  0
   39.7560   22.8050   37.7180 S   0  0  0  0  0  0  0  0  0  0  0  0
  1  6  2  0  0  0  0
  1  2  1  0  0  0  0
  2  3  2  0  0  0  0
  3 14  1  0  0  0  0
  3  4  1  0  0  0  0
  5  4  2  0  0  0  0
  5  7  1  0  0  0  0
  6  5  1  0  0  0  0
  7 11  1  0  0  0  0
  8  9  2  0  0  0  0
  8  7  1  0  0  0  0
  9 10  1  0  0  0  0
 10 16  1  0  0  0  0
 11 10  2  0  0  0  0
 11 19  1  0  0  0  0
 12 17  1  0  0  0  0
 12  1  1  0  0  0  0
 13  2  1  0  0  0  0
 15  9  1  0  0  0  0
 18 12  1  0  0  0  0
 19 20  2  0  0  0  0
 19 23  1  0  0  0  0
 20 21  1  0  0  0  0
 21 22  1  0  0  0  0
 22 24  1  0  0  0  0
 23 22  2  0  0  0  0
 24 25  2  0  0  0  0
 24 28  1  0  0  0  0
 25 26  1  0  0  0  0
 26 27  2  0  0  0  0
 28 27  1  0  0  0  0
M  END
>  <minimizedAffinity>
-4.17273092

>  <minimizedRMSD>
7.51843119

$$$$
