
 OpenBabel03262517473D

 27 30  0  0  0  0  0  0  0  0999 V2000
   39.7060   22.8000   37.8800 C   0  0  0  0  0  0  0  0  0  0  0  0
   38.7620   23.5180   38.6170 C   0  0  0  0  0  0  0  0  0  0  0  0
   37.7530   24.1960   37.8980 C   0  0  0  0  0  0  0  0  0  0  0  0
   37.7740   24.0980   36.5260 N   0  0  0  0  0  0  0  0  0  0  0  0
   38.7100   23.3890   35.8600 C   0  0  0  0  0  0  0  0  0  0  0  0
   39.6590   22.7520   36.5520 N   0  0  0  0  0  0  0  0  0  0  0  0
   38.5950   23.3850   34.4460 N   0  0  0  0  0  0  0  0  0  0  0  0
   39.0180   22.3290   33.6840 C   0  0  0  0  0  0  0  0  0  0  0  0
   38.7840   22.6040   32.3790 N   0  0  0  0  0  0  0  0  0  0  0  0
   38.2130   23.8290   32.2790 C   0  0  0  0  0  0  0  0  0  0  0  0
   37.7460   24.6620   31.2620 C   0  0  0  0  0  0  0  0  0  0  0  0
   37.2190   25.8590   31.5360 N   0  0  0  0  0  0  0  0  0  0  0  0
   37.1370   26.2640   32.8040 C   0  0  0  0  0  0  0  0  0  0  0  0
   37.5750   25.4950   33.8240 N   0  0  0  0  0  0  0  0  0  0  0  0
   38.1070   24.2940   33.5910 C   0  0  0  0  0  0  0  0  0  0  0  0
   37.9130   24.0670   29.9710 N   0  0  0  0  0  0  0  0  0  0  0  0
   40.4550   22.3010   38.4900 H   0  0  0  0  0  0  0  0  0  0  0  0
   38.7140   23.6180   39.6980 H   0  0  0  0  0  0  0  0  0  0  0  0
   36.9620   24.7890   38.3630 H   0  0  0  0  0  0  0  0  0  0  0  0
   39.4740   21.3880   33.9730 H   0  0  0  0  0  0  0  0  0  0  0  0
   38.7270   23.8190   29.3820 H   0  0  0  0  0  0  0  0  0  0  0  0
   36.9200   23.9160   29.7090 H   0  0  0  0  0  0  0  0  0  0  0  0
   36.5480   27.5980   33.0890 C   0  0  0  0  0  0  0  0  0  0  0  0
   36.4870   28.1140   34.3920 C   0  0  0  0  0  0  0  0  0  0  0  0
   35.9420   29.3360   34.6190 C   0  0  0  0  0  0  0  0  0  0  0  0
   35.4240   30.0780   33.4320 C   0  0  0  0  0  0  0  0  0  0  0  0
   35.8100   28.8460   32.0480 S   0  0  0  0  0  0  0  0  0  0  0  0
  1 17  1  0  0  0  0
  1  2  1  0  0  0  0
  2 18  1  0  0  0  0
  3 19  1  0  0  0  0
  3  2  2  0  0  0  0
  4  3  1  0  0  0  0
  5  4  2  0  0  0  0
  5  6  1  0  0  0  0
  6  1  2  0  0  0  0
  7  5  1  0  0  0  0
  8 20  1  0  0  0  0
  8  7  1  0  0  0  0
  9  8  2  0  0  0  0
 10  9  1  0  0  0  0
 10 15  1  0  0  0  0
 11 12  1  0  0  0  0
 11 10  2  0  0  0  0
 12 13  2  0  0  0  0
 13 23  1  0  0  0  0
 13 14  1  0  0  0  0
 15 14  2  0  0  0  0
 15  7  1  0  0  0  0
 16 11  1  0  0  0  0
 21 16  1  0  0  0  0
 22 16  1  0  0  0  0
 23 24  2  0  0  0  0
 24 25  1  0  0  0  0
 26 25  2  0  0  0  0
 27 23  1  0  0  0  0
 27 26  1  0  0  0  0
M  END
>  <minimizedAffinity>
-5.66975594

>  <minimizedRMSD>
1.8283844

$$$$
