
 OpenBabel03262519433D

 24 25  0  0  1  0  0  0  0  0999 V2000
   38.2260   24.3660   36.8730 C   0  0  1  0  0  0  0  0  0  0  0  0
   37.3640   24.0290   36.2430 H   0  0  0  0  0  0  0  0  0  0  0  0
   41.0200   21.8730   37.4730 C   0  0  0  0  0  0  0  0  0  0  0  0
   39.9690   22.7750   37.7460 C   0  0  0  0  0  0  0  0  0  0  0  0
   39.3160   23.3980   36.6470 C   0  0  0  0  0  0  0  0  0  0  0  0
   39.7500   23.0820   35.3890 N   0  0  0  0  0  0  0  0  0  0  0  0
   40.7470   22.2250   35.1600 C   0  0  0  0  0  0  0  0  0  0  0  0
   41.3850   21.6170   36.1940 N   0  0  0  0  0  0  0  0  0  0  0  0
   41.5010   21.4100   38.3250 H   0  0  0  0  0  0  0  0  0  0  0  0
   39.6680   22.9880   38.7620 H   0  0  0  0  0  0  0  0  0  0  0  0
   41.0280   22.0310   34.1280 H   0  0  0  0  0  0  0  0  0  0  0  0
   37.7820   24.3900   38.3200 C   0  0  0  0  0  0  0  0  0  0  0  0
   37.3990   23.3980   38.6230 H   0  0  0  0  0  0  0  0  0  0  0  0
   38.7100   24.5820   38.9340 H   0  0  0  0  0  0  0  0  0  0  0  0
   37.0940   25.2140   38.5280 H   0  0  0  0  0  0  0  0  0  0  0  0
   38.5870   25.7660   36.4470 C   0  0  0  0  0  0  0  0  0  0  0  0
   38.3470   26.5200   37.1900 H   0  0  0  0  0  0  0  0  0  0  0  0
   39.6830   25.8530   36.2360 H   0  0  0  0  0  0  0  0  0  0  0  0
   37.8800   26.0650   35.1860 C   0  0  0  0  0  0  0  0  0  0  0  0
   37.2310   27.2620   35.0530 N   0  0  0  0  0  0  0  0  0  0  0  0
   36.7100   27.3170   33.8880 O   0  0  0  0  0  0  0  0  0  0  0  0
   36.9550   26.2300   33.1980 C   0  0  0  0  0  0  0  0  0  0  0  0
   36.6810   25.9140   32.1840 H   0  0  0  0  0  0  0  0  0  0  0  0
   37.6860   25.4310   33.9910 N   0  0  0  0  0  0  0  0  0  0  0  0
  1  2  1  6  0  0  0
  1 12  1  0  0  0  0
  3  4  1  0  0  0  0
  3  9  1  0  0  0  0
  4 10  1  0  0  0  0
  5  1  1  0  0  0  0
  5  4  2  0  0  0  0
  6  5  1  0  0  0  0
  7  6  2  0  0  0  0
  7  8  1  0  0  0  0
  8  3  2  0  0  0  0
 11  7  1  0  0  0  0
 12 15  1  0  0  0  0
 12 13  1  0  0  0  0
 12 14  1  0  0  0  0
 16  1  1  0  0  0  0
 16 17  1  0  0  0  0
 18 16  1  0  0  0  0
 19 16  1  0  0  0  0
 20 19  2  0  0  0  0
 21 20  1  0  0  0  0
 22 21  1  0  0  0  0
 22 24  2  0  0  0  0
 23 22  1  0  0  0  0
 24 19  1  0  0  0  0
M  END
>  <minimizedAffinity>
-3.75499058

>  <minimizedRMSD>
1.20806611

$$$$
