
 OpenBabel03262519383D

 30 32  0  0  1  0  0  0  0  0999 V2000
   37.7930   25.4080   34.2070 N   0  0  0  0  0  0  0  0  0  0  0  0
   37.1430   25.2430   32.9380 C   0  0  0  0  0  0  0  0  0  0  0  0
   36.7850   26.6340   32.4830 C   0  0  0  0  0  0  0  0  0  0  0  0
   37.2950   27.5310   33.5920 C   0  0  0  0  0  0  0  0  0  0  0  0
   38.4870   26.6580   34.0810 C   0  0  2  0  0  0  0  0  0  0  0  0
   36.2120   24.6630   33.0820 H   0  0  0  0  0  0  0  0  0  0  0  0
   37.7540   24.6980   32.1870 H   0  0  0  0  0  0  0  0  0  0  0  0
   37.4140   26.8560   31.5870 H   0  0  0  0  0  0  0  0  0  0  0  0
   35.7110   26.7620   32.2680 H   0  0  0  0  0  0  0  0  0  0  0  0
   37.6540   28.5000   33.2390 H   0  0  0  0  0  0  0  0  0  0  0  0
   36.5620   27.5590   34.4080 H   0  0  0  0  0  0  0  0  0  0  0  0
   38.7460   26.9790   35.1290 H   0  0  0  0  0  0  0  0  0  0  0  0
   38.7600   24.4140   34.4990 C   0  0  0  0  0  0  0  0  0  0  0  0
   39.7920   24.6260   34.1630 H   0  0  0  0  0  0  0  0  0  0  0  0
   38.4820   23.4600   33.9710 H   0  0  0  0  0  0  0  0  0  0  0  0
   37.9020   24.1600   38.1810 C   0  0  0  0  0  0  0  0  0  0  0  0
   37.8310   24.5430   36.8450 C   0  0  0  0  0  0  0  0  0  0  0  0
   38.7740   24.0440   35.9560 C   0  0  0  0  0  0  0  0  0  0  0  0
   39.7380   23.1860   36.4510 N   0  0  0  0  0  0  0  0  0  0  0  0
   39.7690   22.8440   37.7440 C   0  0  0  0  0  0  0  0  0  0  0  0
   38.8570   23.3280   38.5970 N   0  0  0  0  0  0  0  0  0  0  0  0
   37.1410   24.5760   38.8430 H   0  0  0  0  0  0  0  0  0  0  0  0
   37.0800   25.2150   36.4440 H   0  0  0  0  0  0  0  0  0  0  0  0
   40.5420   22.1670   38.0980 H   0  0  0  0  0  0  0  0  0  0  0  0
   39.4960   26.6410   33.1950 O   0  0  0  0  0  0  0  0  0  0  0  0
   40.6470   27.2780   33.4160 C   0  0  0  0  0  0  0  0  0  0  0  0
   41.3860   27.3110   32.0600 C   0  0  0  0  0  0  0  0  0  0  0  0
   42.2860   26.1160   32.0530 C   0  0  0  0  0  0  0  0  0  0  0  0
   42.6170   25.8780   33.5000 C   0  0  0  0  0  0  0  0  0  0  0  0
   41.6700   26.7310   34.3230 C   0  0  0  0  0  0  0  0  0  0  0  0
  1 13  1  0  0  0  0
  2  6  1  0  0  0  0
  2  1  1  0  0  0  0
  3  2  1  0  0  0  0
  3  4  1  0  0  0  0
  4  5  1  0  0  0  0
  4 11  1  0  0  0  0
  5  1  1  0  0  0  0
  5 12  1  1  0  0  0
  7  2  1  0  0  0  0
  8  3  1  0  0  0  0
  9  3  1  0  0  0  0
 10  4  1  0  0  0  0
 13 18  1  0  0  0  0
 14 13  1  0  0  0  0
 15 13  1  0  0  0  0
 16 21  1  0  0  0  0
 16 22  1  0  0  0  0
 17 16  2  0  0  0  0
 18 19  2  0  0  0  0
 18 17  1  0  0  0  0
 19 20  1  0  0  0  0
 20 24  1  0  0  0  0
 20 21  2  0  0  0  0
 23 17  1  0  0  0  0
 25 26  1  0  0  0  0
 25  5  1  0  0  0  0
 26 30  1  0  0  0  0
 27 26  1  0  0  0  0
 28 27  1  0  0  0  0
 28 29  1  0  0  0  0
 29 30  1  0  0  0  0
M  END
>  <minimizedAffinity>
-4.08708525

>  <minimizedRMSD>
0.733085811

$$$$
