
 OpenBabel03262519483D

 37 40  0  0  1  0  0  0  0  0999 V2000
   37.2900   26.0940   32.7960 N   0  0  0  0  0  0  0  0  0  0  0  0
   36.8250   24.9590   32.2750 C   0  0  0  0  0  0  0  0  0  0  0  0
   35.7750   25.1290   31.3940 C   0  0  0  0  0  0  0  0  0  0  0  0
   35.5840   26.4510   31.3760 N   0  0  0  0  0  0  0  0  0  0  0  0
   36.4870   27.0260   32.2110 C   0  0  0  0  0  0  0  0  0  0  0  0
   37.2590   23.9800   32.5370 H   0  0  0  0  0  0  0  0  0  0  0  0
   35.2860   24.3100   30.8860 H   0  0  0  0  0  0  0  0  0  0  0  0
   36.5050   28.5300   32.3460 C   0  0  1  0  0  0  0  0  0  0  0  0
   35.4900   29.2950   31.5880 C   0  0  0  0  0  0  0  0  0  0  0  0
   35.3250   29.1550   33.0760 C   0  0  2  0  0  0  0  0  0  0  0  0
   37.4710   28.9400   32.6320 H   0  0  0  0  0  0  0  0  0  0  0  0
   34.7340   28.7150   31.0020 H   0  0  0  0  0  0  0  0  0  0  0  0
   35.7100   30.2780   31.1270 H   0  0  0  0  0  0  0  0  0  0  0  0
   34.5650   28.5270   33.5080 H   0  0  0  0  0  0  0  0  0  0  0  0
   35.6400   30.4370   33.7910 C   0  0  0  0  0  0  0  0  0  0  0  0
   35.7140   30.0940   35.1030 C   0  0  0  0  0  0  0  0  0  0  0  0
   36.0230   31.3720   35.7670 C   0  0  0  0  0  0  0  0  0  0  0  0
   36.2140   32.7140   35.1810 C   0  0  0  0  0  0  0  0  0  0  0  0
   35.9200   32.1720   33.3570 S   0  0  0  0  0  0  0  0  0  0  0  0
   38.3010   26.4330   33.7130 C   0  0  0  0  0  0  0  0  0  0  0  0
   39.1770   25.7520   33.5400 H   0  0  0  0  0  0  0  0  0  0  0  0
   38.7000   27.4550   33.5010 H   0  0  0  0  0  0  0  0  0  0  0  0
   37.8840   26.3230   35.1310 C   0  0  1  0  0  0  0  0  0  0  0  0
   36.7600   26.2200   35.1770 H   0  0  0  0  0  0  0  0  0  0  0  0
   38.4740   23.5370   37.6240 C   0  0  0  0  0  0  0  0  0  0  0  0
   37.8780   24.6840   37.0710 C   0  0  0  0  0  0  0  0  0  0  0  0
   38.4370   25.1370   35.8250 C   0  0  0  0  0  0  0  0  0  0  0  0
   39.4940   24.4510   35.2510 N   0  0  0  0  0  0  0  0  0  0  0  0
   40.0070   23.3680   35.8370 C   0  0  0  0  0  0  0  0  0  0  0  0
   39.4930   22.9030   37.0390 N   0  0  0  0  0  0  0  0  0  0  0  0
   38.0250   23.2310   38.5570 H   0  0  0  0  0  0  0  0  0  0  0  0
   37.0720   25.2560   37.4540 H   0  0  0  0  0  0  0  0  0  0  0  0
   40.8320   22.8670   35.3490 H   0  0  0  0  0  0  0  0  0  0  0  0
   38.2350   27.5930   35.8990 C   0  0  0  0  0  0  0  0  0  0  0  0
   39.0950   27.4320   36.6010 H   0  0  0  0  0  0  0  0  0  0  0  0
   37.3810   27.9070   36.5340 H   0  0  0  0  0  0  0  0  0  0  0  0
   38.4490   28.4300   35.1840 H   0  0  0  0  0  0  0  0  0  0  0  0
  1 20  1  0  0  0  0
  2  6  1  0  0  0  0
  2  1  1  0  0  0  0
  3  2  2  0  0  0  0
  4  3  1  0  0  0  0
  4  5  2  0  0  0  0
  5  8  1  0  0  0  0
  5  1  1  0  0  0  0
  7  3  1  0  0  0  0
  8 11  1  1  0  0  0
  8 10  1  0  0  0  0
  9  8  1  0  0  0  0
  9 10  1  0  0  0  0
 10 14  1  1  0  0  0
 10 15  1  0  0  0  0
 12  9  1  0  0  0  0
 13  9  1  0  0  0  0
 15 16  2  0  0  0  0
 16 17  1  0  0  0  0
 18 17  2  0  0  0  0
 19 15  1  0  0  0  0
 19 18  1  0  0  0  0
 20 23  1  0  0  0  0
 21 20  1  0  0  0  0
 22 20  1  0  0  0  0
 23 24  1  1  0  0  0
 23 27  1  0  0  0  0
 23 34  1  0  0  0  0
 25 31  1  0  0  0  0
 26 32  1  0  0  0  0
 26 25  1  0  0  0  0
 27 26  2  0  0  0  0
 28 27  1  0  0  0  0
 28 29  2  0  0  0  0
 29 30  1  0  0  0  0
 30 25  2  0  0  0  0
 33 29  1  0  0  0  0
 34 36  1  0  0  0  0
 34 35  1  0  0  0  0
 37 34  1  0  0  0  0
M  END
>  <minimizedAffinity>
-5.28125381

>  <minimizedRMSD>
0.951056957

$$$$
