
 OpenBabel03262518443D

 37 41  0  0  1  0  0  0  0  0999 V2000
   43.0320   25.6200   32.9950 C   0  0  0  0  0  0  0  0  0  0  0  0
   43.5690   24.4370   32.7560 N   0  0  0  0  0  0  0  0  0  0  0  0
   43.2170   23.5740   33.6620 O   0  0  0  0  0  0  0  0  0  0  0  0
   42.4230   24.2470   34.5070 C   0  0  0  0  0  0  0  0  0  0  0  0
   42.2730   25.5250   34.1410 N   0  0  0  0  0  0  0  0  0  0  0  0
   39.1640   25.4840   30.2720 C   0  0  0  0  0  0  0  0  0  0  0  0
   38.1280   25.9300   31.1210 C   0  0  0  0  0  0  0  0  0  0  0  0
   38.4280   26.8320   32.1300 C   0  0  0  0  0  0  0  0  0  0  0  0
   39.7300   27.2430   32.2490 N   0  0  0  0  0  0  0  0  0  0  0  0
   40.6800   26.8000   31.4280 C   0  0  0  0  0  0  0  0  0  0  0  0
   40.4230   25.9260   30.4400 N   0  0  0  0  0  0  0  0  0  0  0  0
   41.9960   27.3070   31.6560 N   0  0  0  0  0  0  0  0  0  0  0  0
   42.2170   28.4650   31.0980 N   0  0  0  0  0  0  0  0  0  0  0  0
   43.4880   28.8470   31.3780 C   0  0  0  0  0  0  0  0  0  0  0  0
   44.0580   27.8880   32.1320 C   0  0  0  0  0  0  0  0  0  0  0  0
   43.1030   26.9080   32.3060 C   0  0  0  0  0  0  0  0  0  0  0  0
   37.1340   25.5370   30.9350 H   0  0  0  0  0  0  0  0  0  0  0  0
   37.6470   27.1700   32.7720 H   0  0  0  0  0  0  0  0  0  0  0  0
   44.0130   29.7460   31.0810 H   0  0  0  0  0  0  0  0  0  0  0  0
   45.0280   27.7380   32.5910 H   0  0  0  0  0  0  0  0  0  0  0  0
   38.8670   24.5560   29.2320 N   0  0  0  0  0  0  0  0  0  0  0  0
   38.0630   24.5830   28.5660 H   0  0  0  0  0  0  0  0  0  0  0  0
   39.5160   23.7280   29.0890 H   0  0  0  0  0  0  0  0  0  0  0  0
   41.7590   23.6680   35.7370 C   0  0  2  0  0  0  0  0  0  0  0  0
   42.0000   22.2320   36.0830 C   0  0  0  0  0  0  0  0  0  0  0  0
   40.6600   22.6780   35.5550 C   0  0  1  0  0  0  0  0  0  0  0  0
   41.8320   24.3350   36.6100 H   0  0  0  0  0  0  0  0  0  0  0  0
   42.0410   21.9330   37.1340 H   0  0  0  0  0  0  0  0  0  0  0  0
   42.6910   21.7220   35.3940 H   0  0  0  0  0  0  0  0  0  0  0  0
   40.4240   22.3480   34.5450 H   0  0  0  0  0  0  0  0  0  0  0  0
   39.5330   22.8540   36.5000 C   0  0  0  0  0  0  0  0  0  0  0  0
   38.2080   22.7400   36.1260 C   0  0  0  0  0  0  0  0  0  0  0  0
   37.2670   22.9300   37.1160 C   0  0  0  0  0  0  0  0  0  0  0  0
   37.5840   23.2110   38.3930 N   0  0  0  0  0  0  0  0  0  0  0  0
   38.8740   23.3170   38.7350 C   0  0  0  0  0  0  0  0  0  0  0  0
   39.2770   23.5390   39.7260 H   0  0  0  0  0  0  0  0  0  0  0  0
   39.7910   23.1380   37.7970 N   0  0  0  0  0  0  0  0  0  0  0  0
  1  5  1  0  0  0  0
  2  1  2  0  0  0  0
  2  3  1  0  0  0  0
  3  4  1  0  0  0  0
  4 24  1  0  0  0  0
  5  4  2  0  0  0  0
  6 11  2  0  0  0  0
  6  7  1  0  0  0  0
  7  8  2  0  0  0  0
  8  9  1  0  0  0  0
  8 18  1  0  0  0  0
 10 12  1  0  0  0  0
 10  9  2  0  0  0  0
 11 10  1  0  0  0  0
 12 16  1  0  0  0  0
 13 14  2  0  0  0  0
 13 12  1  0  0  0  0
 14 15  1  0  0  0  0
 15 16  2  0  0  0  0
 15 20  1  0  0  0  0
 16  1  1  0  0  0  0
 17  7  1  0  0  0  0
 19 14  1  0  0  0  0
 21  6  1  0  0  0  0
 22 21  1  0  0  0  0
 23 21  1  0  0  0  0
 24 25  1  0  0  0  0
 24 27  1  1  0  0  0
 25 28  1  0  0  0  0
 26 30  1  6  0  0  0
 26 24  1  0  0  0  0
 26 25  1  0  0  0  0
 26 31  1  0  0  0  0
 29 25  1  0  0  0  0
 31 37  1  0  0  0  0
 32 31  2  0  0  0  0
 32 33  1  0  0  0  0
 33 34  2  0  0  0  0
 34 35  1  0  0  0  0
 35 36  1  0  0  0  0
 37 35  2  0  0  0  0
M  END
>  <minimizedAffinity>
-4.53745842

>  <minimizedRMSD>
3.49233079

$$$$
