
 OpenBabel03262519483D

 39 42  0  0  1  0  0  0  0  0999 V2000
   37.3520   25.7370   32.8650 N   0  0  0  0  0  0  0  0  0  0  0  0
   36.8390   24.6230   32.3450 C   0  0  0  0  0  0  0  0  0  0  0  0
   35.8230   24.8390   31.4410 C   0  0  0  0  0  0  0  0  0  0  0  0
   35.7020   26.1670   31.4050 N   0  0  0  0  0  0  0  0  0  0  0  0
   36.6150   26.7080   32.2560 C   0  0  0  0  0  0  0  0  0  0  0  0
   37.2140   23.6260   32.6270 H   0  0  0  0  0  0  0  0  0  0  0  0
   35.2590   24.1160   30.8960 H   0  0  0  0  0  0  0  0  0  0  0  0
   36.7160   28.2130   32.3890 C   0  0  1  0  0  0  0  0  0  0  0  0
   35.7680   29.0170   31.5880 C   0  0  0  0  0  0  0  0  0  0  0  0
   35.5320   28.8890   33.0740 C   0  0  2  0  0  0  0  0  0  0  0  0
   37.6650   28.6310   32.7230 H   0  0  0  0  0  0  0  0  0  0  0  0
   35.0130   28.4800   30.9710 H   0  0  0  0  0  0  0  0  0  0  0  0
   36.0480   29.9840   31.1370 H   0  0  0  0  0  0  0  0  0  0  0  0
   34.7590   28.1980   33.4280 H   0  0  0  0  0  0  0  0  0  0  0  0
   35.7160   30.1630   33.7830 C   0  0  0  0  0  0  0  0  0  0  0  0
   35.8470   30.2450   35.1530 C   0  0  0  0  0  0  0  0  0  0  0  0
   36.0210   31.4150   35.8650 C   0  0  0  0  0  0  0  0  0  0  0  0
   36.0540   32.5150   35.0820 N   0  0  0  0  0  0  0  0  0  0  0  0
   35.9340   32.5070   33.7630 C   0  0  0  0  0  0  0  0  0  0  0  0
   35.9870   33.4920   33.3320 H   0  0  0  0  0  0  0  0  0  0  0  0
   35.7640   31.3280   33.1110 N   0  0  0  0  0  0  0  0  0  0  0  0
   38.3630   26.0240   33.8060 C   0  0  0  0  0  0  0  0  0  0  0  0
   38.8700   26.9900   33.5310 H   0  0  0  0  0  0  0  0  0  0  0  0
   39.1690   25.2490   33.6970 H   0  0  0  0  0  0  0  0  0  0  0  0
   37.8820   26.0390   35.2100 C   0  0  1  0  0  0  0  0  0  0  0  0
   36.7810   25.9270   35.2980 H   0  0  0  0  0  0  0  0  0  0  0  0
   38.4860   23.5590   38.0040 C   0  0  0  0  0  0  0  0  0  0  0  0
   37.8850   24.6230   37.3100 C   0  0  0  0  0  0  0  0  0  0  0  0
   38.4540   24.9400   36.0330 C   0  0  0  0  0  0  0  0  0  0  0  0
   39.5310   24.2130   35.5550 N   0  0  0  0  0  0  0  0  0  0  0  0
   40.0560   23.2170   36.2570 C   0  0  0  0  0  0  0  0  0  0  0  0
   39.5320   22.8810   37.4960 N   0  0  0  0  0  0  0  0  0  0  0  0
   38.0530   23.3230   38.9660 H   0  0  0  0  0  0  0  0  0  0  0  0
   37.0570   25.1980   37.6550 H   0  0  0  0  0  0  0  0  0  0  0  0
   40.8940   22.6170   35.9330 H   0  0  0  0  0  0  0  0  0  0  0  0
   38.1990   27.3880   35.8490 C   0  0  0  0  0  0  0  0  0  0  0  0
   39.1190   27.8300   35.4220 H   0  0  0  0  0  0  0  0  0  0  0  0
   38.4160   27.1770   36.9160 H   0  0  0  0  0  0  0  0  0  0  0  0
   37.3270   28.0360   35.8040 H   0  0  0  0  0  0  0  0  0  0  0  0
  1 22  1  0  0  0  0
  2  6  1  0  0  0  0
  2  1  1  0  0  0  0
  3  2  2  0  0  0  0
  4  3  1  0  0  0  0
  4  5  2  0  0  0  0
  5  8  1  0  0  0  0
  5  1  1  0  0  0  0
  7  3  1  0  0  0  0
  8 11  1  1  0  0  0
  8 10  1  0  0  0  0
  9  8  1  0  0  0  0
  9 10  1  0  0  0  0
 10 14  1  1  0  0  0
 10 15  1  0  0  0  0
 12  9  1  0  0  0  0
 13  9  1  0  0  0  0
 15 16  1  0  0  0  0
 16 17  2  0  0  0  0
 18 17  1  0  0  0  0
 19 18  2  0  0  0  0
 20 19  1  0  0  0  0
 21 19  1  0  0  0  0
 21 15  2  0  0  0  0
 22 25  1  0  0  0  0
 23 22  1  0  0  0  0
 24 22  1  0  0  0  0
 25 26  1  6  0  0  0
 25 36  1  0  0  0  0
 25 29  1  0  0  0  0
 27 33  1  0  0  0  0
 28 34  1  0  0  0  0
 28 27  2  0  0  0  0
 29 28  1  0  0  0  0
 30 29  2  0  0  0  0
 30 31  1  0  0  0  0
 31 32  2  0  0  0  0
 32 27  1  0  0  0  0
 35 31  1  0  0  0  0
 36 38  1  0  0  0  0
 37 36  1  0  0  0  0
 39 36  1  0  0  0  0
M  END
>  <minimizedAffinity>
-5.5364213

>  <minimizedRMSD>
0.978072882

$$$$
