REMARK  Name = 
REMARK  3 active torsions:
REMARK  status: ('A' for Active; 'I' for Inactive)
REMARK    1  A    between atoms: C_1  and  C_6
REMARK    2  A    between atoms: N_5  and  C_12
REMARK    3  A    between atoms: C_14  and  C_24
REMARK                            x       y       z     vdW  Elec       q    Type
REMARK                         _______ _______ _______ _____ _____    ______ ____
ROOT
ATOM      1  C   UNL     1      38.029  23.468  34.617  0.00  0.00    +0.000 A 
ATOM      2  C   UNL     1      38.266  24.572  33.800  0.00  0.00    +0.000 A 
ATOM      3  N   UNL     1      37.762  24.176  32.586  0.00  0.00    +0.000 NA
ATOM      4  C   UNL     1      37.286  22.960  32.714  0.00  0.00    +0.000 A 
ATOM      5  N   UNL     1      37.430  22.473  33.969  0.00  0.00    +0.000 N 
ATOM      6  H   UNL     1      38.739  25.478  34.131  0.00  0.00    +0.000 HD
ATOM      7  H   UNL     1      36.825  22.410  31.890  0.00  0.00    +0.000 HD
ENDROOT
BRANCH   1   8
ATOM      8  C   UNL     1      38.391  23.399  36.026  0.00  0.00    +0.000 A 
ATOM      9  C   UNL     1      39.595  22.798  36.420  0.00  0.00    +0.000 A 
ATOM     10  C   UNL     1      39.895  22.758  37.796  0.00  0.00    +0.000 A 
ATOM     11  N   UNL     1      39.015  23.296  38.659  0.00  0.00    +0.000 NA
ATOM     12  C   UNL     1      37.852  23.873  38.247  0.00  0.00    +0.000 A 
ATOM     13  N   UNL     1      37.538  23.927  36.946  0.00  0.00    +0.000 NA
ATOM     14  H   UNL     1      40.265  22.381  35.683  0.00  0.00    +0.000 HD
ATOM     15  H   UNL     1      40.825  22.296  38.134  0.00  0.00    +0.000 HD
ATOM     16  H   UNL     1      37.165  24.297  38.967  0.00  0.00    +0.000 HD
ENDBRANCH   1   8
BRANCH   5  17
ATOM     17  C   UNL     1      37.001  21.173  34.396  0.00  0.00    +0.000 C 
ATOM     18  C   UNL     1      35.849  20.962  35.253  0.00  0.00    +0.000 C 
ATOM     19  C   UNL     1      35.669  20.769  33.771  0.00  0.00    +0.000 C 
ATOM     20  H   UNL     1      37.831  20.438  34.407  0.00  0.00    +0.000 HD
ATOM     21  H   UNL     1      35.803  20.071  35.922  0.00  0.00    +0.000 HD
ATOM     22  H   UNL     1      35.274  21.813  35.674  0.00  0.00    +0.000 HD
ATOM     23  H   UNL     1      35.083  21.499  33.204  0.00  0.00    +0.000 HD
BRANCH  19  24
ATOM     24  C   UNL     1      35.523  19.343  33.348  0.00  0.00    +0.000 A 
ATOM     25  C   UNL     1      36.162  18.968  32.179  0.00  0.00    +0.000 A 
ATOM     26  C   UNL     1      35.982  17.634  31.850  0.00  0.00    +0.000 A 
ATOM     27  N   UNL     1      35.265  16.786  32.581  0.00  0.00    +0.000 NA
ATOM     28  C   UNL     1      34.658  17.189  33.713  0.00  0.00    +0.000 A 
ATOM     29  H   UNL     1      34.045  16.647  34.420  0.00  0.00    +0.000 HD
ATOM     30  N   UNL     1      34.796  18.493  34.093  0.00  0.00    +0.000 NA
ENDBRANCH  19  24
ENDBRANCH   5  17
TORSDOF 3
