
 OpenBabel03262519573D

 30 33  0  0  1  0  0  0  0  0999 V2000
   38.1560   23.9240   34.5600 C   0  0  0  0  0  0  0  0  0  0  0  0
   38.3250   25.1660   33.9500 C   0  0  0  0  0  0  0  0  0  0  0  0
   37.9120   24.9400   32.6610 N   0  0  0  0  0  0  0  0  0  0  0  0
   37.5430   23.6850   32.5600 C   0  0  0  0  0  0  0  0  0  0  0  0
   37.6780   23.0070   33.7240 N   0  0  0  0  0  0  0  0  0  0  0  0
   38.6990   26.0390   34.4520 H   0  0  0  0  0  0  0  0  0  0  0  0
   37.1700   23.2460   31.6320 H   0  0  0  0  0  0  0  0  0  0  0  0
   38.4620   23.6490   35.9570 C   0  0  0  0  0  0  0  0  0  0  0  0
   39.6790   23.0490   36.3100 C   0  0  0  0  0  0  0  0  0  0  0  0
   39.9240   22.8050   37.6760 C   0  0  0  0  0  0  0  0  0  0  0  0
   38.9810   23.1570   38.5680 N   0  0  0  0  0  0  0  0  0  0  0  0
   37.8070   23.7380   38.1950 C   0  0  0  0  0  0  0  0  0  0  0  0
   37.5450   23.9840   36.9050 N   0  0  0  0  0  0  0  0  0  0  0  0
   40.4000   22.7860   35.5510 H   0  0  0  0  0  0  0  0  0  0  0  0
   40.8620   22.3380   37.9830 H   0  0  0  0  0  0  0  0  0  0  0  0
   37.0690   24.0100   38.9380 H   0  0  0  0  0  0  0  0  0  0  0  0
   37.3510   21.6230   33.9060 C   0  0  1  0  0  0  0  0  0  0  0  0
   36.1830   21.1760   34.6420 C   0  0  0  0  0  0  0  0  0  0  0  0
   36.0950   21.2180   33.1400 C   0  0  2  0  0  0  0  0  0  0  0  0
   38.2450   20.9680   33.8510 H   0  0  0  0  0  0  0  0  0  0  0  0
   36.1870   20.1850   35.1540 H   0  0  0  0  0  0  0  0  0  0  0  0
   35.5110   21.8930   35.1580 H   0  0  0  0  0  0  0  0  0  0  0  0
   35.4720   21.9810   32.6630 H   0  0  0  0  0  0  0  0  0  0  0  0
   36.1040   19.8760   32.4830 C   0  0  0  0  0  0  0  0  0  0  0  0
   36.7910   19.7690   31.2870 C   0  0  0  0  0  3  0  0  0  0  0  0
   36.7560   18.4970   30.7360 C   0  0  0  0  0  3  0  0  0  0  0  0
   36.1240   17.4710   31.2970 N   0  0  0  0  0  0  0  0  0  0  0  0
   35.4650   17.6160   32.4620 C   0  0  0  0  0  0  0  0  0  0  0  0
   34.9050   16.9030   33.0530 H   0  0  0  0  0  0  0  0  0  0  0  0
   35.4620   18.8440   33.0560 N   0  0  0  0  0  0  0  0  0  0  0  0
  1  8  1  0  0  0  0
  2  6  1  0  0  0  0
  2  1  2  0  0  0  0
  3  2  1  0  0  0  0
  4  3  2  0  0  0  0
  4  5  1  0  0  0  0
  5 17  1  0  0  0  0
  5  1  1  0  0  0  0
  7  4  1  0  0  0  0
  8  9  2  0  0  0  0
  8 13  1  0  0  0  0
  9 10  1  0  0  0  0
 10 15  1  0  0  0  0
 10 11  2  0  0  0  0
 12 11  1  0  0  0  0
 12 16  1  0  0  0  0
 13 12  2  0  0  0  0
 14  9  1  0  0  0  0
 17 20  1  6  0  0  0
 17 18  1  0  0  0  0
 18 21  1  0  0  0  0
 18 22  1  0  0  0  0
 19 23  1  6  0  0  0
 19 17  1  0  0  0  0
 19 18  1  0  0  0  0
 24 30  1  0  0  0  0
 24 19  1  0  0  0  0
 25 24  2  0  0  0  0
 26 25  1  0  0  0  0
 26 27  2  0  0  0  0
 27 28  1  0  0  0  0
 28 29  1  0  0  0  0
 28 30  2  0  0  0  0
M  END
>  <minimizedAffinity>
-4.79563761

>  <minimizedRMSD>
0.958170533

$$$$
