
 OpenBabel03262519563D

 30 33  0  0  1  0  0  0  0  0999 V2000
   38.1610   23.9510   34.5260 C   0  0  0  0  0  0  0  0  0  0  0  0
   38.3300   25.1970   33.9250 C   0  0  0  0  0  0  0  0  0  0  0  0
   37.9200   24.9800   32.6330 N   0  0  0  0  0  0  0  0  0  0  0  0
   37.5550   23.7240   32.5220 C   0  0  0  0  0  0  0  0  0  0  0  0
   37.6880   23.0380   33.6820 N   0  0  0  0  0  0  0  0  0  0  0  0
   38.7000   26.0680   34.4350 H   0  0  0  0  0  0  0  0  0  0  0  0
   37.1860   23.2900   31.5900 H   0  0  0  0  0  0  0  0  0  0  0  0
   38.4640   23.6660   35.9210 C   0  0  0  0  0  0  0  0  0  0  0  0
   39.6840   23.0710   36.2750 C   0  0  0  0  0  0  0  0  0  0  0  0
   39.9250   22.8180   37.6400 C   0  0  0  0  0  0  0  0  0  0  0  0
   38.9760   23.1570   38.5310 N   0  0  0  0  0  0  0  0  0  0  0  0
   37.8000   23.7330   38.1580 C   0  0  0  0  0  0  0  0  0  0  0  0
   37.5410   23.9870   36.8690 N   0  0  0  0  0  0  0  0  0  0  0  0
   40.4090   22.8190   35.5160 H   0  0  0  0  0  0  0  0  0  0  0  0
   40.8650   22.3550   37.9460 H   0  0  0  0  0  0  0  0  0  0  0  0
   37.0580   23.9940   38.9000 H   0  0  0  0  0  0  0  0  0  0  0  0
   37.3640   21.6520   33.8530 C   0  0  1  0  0  0  0  0  0  0  0  0
   36.2140   21.1960   34.6110 C   0  0  0  0  0  0  0  0  0  0  0  0
   36.0900   21.2590   33.1120 C   0  0  2  0  0  0  0  0  0  0  0  0
   38.2550   20.9970   33.7680 H   0  0  0  0  0  0  0  0  0  0  0  0
   36.2290   20.1980   35.1090 H   0  0  0  0  0  0  0  0  0  0  0  0
   35.5550   21.9070   35.1520 H   0  0  0  0  0  0  0  0  0  0  0  0
   35.4560   22.0290   32.6600 H   0  0  0  0  0  0  0  0  0  0  0  0
   36.0810   19.9250   32.4370 C   0  0  0  0  0  0  0  0  0  0  0  0
   36.6680   19.8530   31.1860 C   0  0  0  0  0  3  0  0  0  0  0  0
   36.6230   18.5880   30.6220 C   0  0  0  0  0  3  0  0  0  0  0  0
   36.0680   17.5360   31.2190 N   0  0  0  0  0  0  0  0  0  0  0  0
   35.5050   17.6470   32.4370 C   0  0  0  0  0  0  0  0  0  0  0  0
   35.0160   16.9120   33.0600 H   0  0  0  0  0  0  0  0  0  0  0  0
   35.5170   18.8690   33.0470 N   0  0  0  0  0  0  0  0  0  0  0  0
  1  8  1  0  0  0  0
  2  6  1  0  0  0  0
  2  1  2  0  0  0  0
  3  2  1  0  0  0  0
  4  3  2  0  0  0  0
  4  5  1  0  0  0  0
  5 17  1  0  0  0  0
  5  1  1  0  0  0  0
  7  4  1  0  0  0  0
  8  9  2  0  0  0  0
  8 13  1  0  0  0  0
  9 10  1  0  0  0  0
 10 15  1  0  0  0  0
 10 11  2  0  0  0  0
 12 11  1  0  0  0  0
 12 16  1  0  0  0  0
 13 12  2  0  0  0  0
 14  9  1  0  0  0  0
 17 20  1  6  0  0  0
 17 18  1  0  0  0  0
 18 21  1  0  0  0  0
 18 22  1  0  0  0  0
 19 23  1  6  0  0  0
 19 17  1  0  0  0  0
 19 18  1  0  0  0  0
 24 30  1  0  0  0  0
 24 19  1  0  0  0  0
 25 24  2  0  0  0  0
 26 25  1  0  0  0  0
 26 27  2  0  0  0  0
 27 28  1  0  0  0  0
 28 30  2  0  0  0  0
 28 29  1  0  0  0  0
M  END
>  <minimizedAffinity>
-4.77555466

>  <minimizedRMSD>
0.982911468

$$$$
