
 OpenBabel03262518173D

 39 42  0  0  1  0  0  0  0  0999 V2000
   44.0850   23.4140   35.3420 C   0  0  1  0  0  0  0  0  0  0  0  0
   43.5100   23.5880   33.9670 C   0  0  0  0  0  0  0  0  0  0  0  0
   44.2840   24.5360   33.1070 C   0  0  0  0  0  0  0  0  0  0  0  0
   44.7930   25.7160   33.8680 C   0  0  0  0  0  0  0  0  0  0  0  0
   44.0580   25.8860   35.1610 C   0  0  0  0  0  0  0  0  0  0  0  0
   44.3120   24.7250   36.0690 C   0  0  2  0  0  0  0  0  0  0  0  0
   45.0450   22.8750   35.2490 H   0  0  0  0  0  0  0  0  0  0  0  0
   42.4820   24.0120   34.0800 H   0  0  0  0  0  0  0  0  0  0  0  0
   43.4730   22.6090   33.4860 H   0  0  0  0  0  0  0  0  0  0  0  0
   45.1640   24.0000   32.6860 H   0  0  0  0  0  0  0  0  0  0  0  0
   43.6450   24.7950   32.2440 H   0  0  0  0  0  0  0  0  0  0  0  0
   45.8930   25.7420   34.0020 H   0  0  0  0  0  0  0  0  0  0  0  0
   44.5790   26.6160   33.2200 H   0  0  0  0  0  0  0  0  0  0  0  0
   44.3010   26.8310   35.6550 H   0  0  0  0  0  0  0  0  0  0  0  0
   42.9740   25.8990   34.9500 H   0  0  0  0  0  0  0  0  0  0  0  0
   43.6100   24.8560   36.9360 H   0  0  0  0  0  0  0  0  0  0  0  0
   42.5440   20.7040   37.2400 C   0  0  0  0  0  0  0  0  0  0  0  0
   41.2790   21.2020   37.5600 C   0  0  0  0  0  0  0  0  0  0  0  0
   40.9480   22.4720   37.1260 C   0  0  0  0  0  0  0  0  0  0  0  0
   41.8850   23.1740   36.4010 N   0  0  0  0  0  0  0  0  0  0  0  0
   43.0810   22.6520   36.1210 C   0  0  0  0  0  0  0  0  0  0  0  0
   43.4070   21.4400   36.5310 N   0  0  0  0  0  0  0  0  0  0  0  0
   42.8110   19.7120   37.5760 H   0  0  0  0  0  0  0  0  0  0  0  0
   40.6100   20.5840   38.1310 H   0  0  0  0  0  0  0  0  0  0  0  0
   39.6270   23.0170   37.4450 C   0  0  0  0  0  0  0  0  0  0  0  0
   38.8490   23.7820   36.5860 C   0  0  0  0  0  0  0  0  0  0  0  0
   37.7140   24.0690   37.2870 N   0  0  0  0  0  0  0  0  0  0  0  0
   37.8350   23.4950   38.4900 C   0  0  0  0  0  0  0  0  0  0  0  0
   38.9650   22.8540   38.6310 N   0  0  0  0  0  0  0  0  0  0  0  0
   39.0970   24.0790   35.5870 H   0  0  0  0  0  0  0  0  0  0  0  0
   37.0020   23.6330   39.1730 H   0  0  0  0  0  0  0  0  0  0  0  0
   39.2860   22.3330   39.4670 H   0  0  0  0  0  0  0  0  0  0  0  0
   45.6780   24.7210   36.6680 C   0  0  0  0  0  0  0  0  0  0  0  0
   46.1980   25.8240   37.3310 C   0  0  0  0  0  0  0  0  0  0  0  0
   47.4860   25.7200   37.8560 C   0  0  0  0  0  0  0  0  0  0  0  0
   48.2440   24.6120   37.7520 N   0  0  0  0  0  0  0  0  0  0  0  0
   47.7090   23.5660   37.1040 C   0  0  0  0  0  0  0  0  0  0  0  0
   48.2210   22.6050   36.9500 H   0  0  0  0  0  0  0  0  0  0  0  0
   46.4710   23.6160   36.5800 N   0  0  0  0  0  0  0  0  0  0  0  0
  1  7  1  6  0  0  0
  1  6  1  0  0  0  0
  1 21  1  0  0  0  0
  2  8  1  0  0  0  0
  2  1  1  0  0  0  0
  3  4  1  0  0  0  0
  3  2  1  0  0  0  0
  4 12  1  0  0  0  0
  4  5  1  0  0  0  0
  5 14  1  0  0  0  0
  5  6  1  0  0  0  0
  6 33  1  0  0  0  0
  6 16  1  1  0  0  0
  9  2  1  0  0  0  0
 10  3  1  0  0  0  0
 11  3  1  0  0  0  0
 13  4  1  0  0  0  0
 15  5  1  0  0  0  0
 17 18  1  0  0  0  0
 17 23  1  0  0  0  0
 18 24  1  0  0  0  0
 19 25  1  0  0  0  0
 19 18  2  0  0  0  0
 20 19  1  0  0  0  0
 21 20  2  0  0  0  0
 21 22  1  0  0  0  0
 22 17  2  0  0  0  0
 25 29  1  0  0  0  0
 26 27  1  0  0  0  0
 26 25  2  0  0  0  0
 27 28  2  0  0  0  0
 28 29  1  0  0  0  0
 28 31  1  0  0  0  0
 29 32  1  0  0  0  0
 30 26  1  0  0  0  0
 33 34  1  0  0  0  0
 34 35  2  0  0  0  0
 36 35  1  0  0  0  0
 37 36  2  0  0  0  0
 38 37  1  0  0  0  0
 39 33  2  0  0  0  0
 39 37  1  0  0  0  0
M  END
>  <minimizedAffinity>
-5.16683865

>  <minimizedRMSD>
3.63572192

$$$$
