
 OpenBabel03262518533D

 26 28  0  0  0  0  0  0  0  0999 V2000
   39.8710   22.7350   37.4370 C   0  0  0  0  0  0  0  0  0  0  0  0
   39.0900   23.2710   38.5110 C   0  0  0  0  0  0  0  0  0  0  0  0
   37.7020   23.3450   38.3230 C   0  0  0  0  0  0  0  0  0  0  0  0
   37.1650   22.9130   37.1520 N   0  0  0  0  0  0  0  0  0  0  0  0
   37.9440   22.4090   36.1580 C   0  0  0  0  0  0  0  0  0  0  0  0
   39.2950   22.3160   36.2920 N   0  0  0  0  0  0  0  0  0  0  0  0
   37.4210   21.9450   34.9170 N   0  0  0  0  0  0  0  0  0  0  0  0
   38.0980   22.2800   33.7930 C   0  0  0  0  0  0  0  0  0  0  0  0
   37.6110   21.8400   32.5850 C   0  0  0  0  0  0  0  0  0  0  0  0
   36.4510   21.0750   32.5820 C   0  0  0  0  0  0  0  0  0  0  0  0
   35.9960   20.6650   31.4650 O   0  0  0  0  0  0  0  0  0  0  0  0
   35.7990   20.7580   33.7290 N   0  0  0  0  0  0  0  0  0  0  0  0
   36.2970   21.2030   34.9080 C   0  0  0  0  0  0  0  0  0  0  0  0
   35.7670   20.9620   36.0090 O   0  0  0  0  0  0  0  0  0  0  0  0
   40.9460   22.6460   37.5100 H   0  0  0  0  0  0  0  0  0  0  0  0
   39.6170   23.5810   39.3860 H   0  0  0  0  0  0  0  0  0  0  0  0
   37.1170   23.7440   39.1180 H   0  0  0  0  0  0  0  0  0  0  0  0
   38.9860   22.8690   33.8310 H   0  0  0  0  0  0  0  0  0  0  0  0
   34.9190   20.1800   33.7380 H   0  0  0  0  0  0  0  0  0  0  0  0
   38.2390   22.1270   31.3030 C   0  0  0  0  0  0  0  0  0  0  0  0
   38.1830   23.3690   30.7110 C   0  0  0  0  0  0  0  0  0  0  0  0
   38.7650   23.6910   29.4920 C   0  0  0  0  0  0  0  0  0  0  0  0
   39.4350   22.6830   28.8600 N   0  0  0  0  0  0  0  0  0  0  0  0
   39.4910   21.4520   29.4450 C   0  0  0  0  0  0  0  0  0  0  0  0
   40.0450   20.7590   28.8430 H   0  0  0  0  0  0  0  0  0  0  0  0
   38.9090   21.2060   30.6220 N   0  0  0  0  0  0  0  0  0  0  0  0
  1 15  1  0  0  0  0
  1  2  1  0  0  0  0
  2 16  1  0  0  0  0
  3  2  2  0  0  0  0
  3 17  1  0  0  0  0
  4  3  1  0  0  0  0
  5  6  1  0  0  0  0
  5  4  2  0  0  0  0
  6  1  2  0  0  0  0
  7  5  1  0  0  0  0
  8 18  1  0  0  0  0
  8  7  1  0  0  0  0
  9  8  2  0  0  0  0
 10  9  1  0  0  0  0
 10 12  1  0  0  0  0
 11 10  2  0  0  0  0
 12 19  1  0  0  0  0
 12 13  1  0  0  0  0
 13  7  1  0  0  0  0
 13 14  2  0  0  0  0
 20  9  1  0  0  0  0
 21 20  1  0  0  0  0
 22 21  2  0  0  0  0
 23 24  2  0  0  0  0
 23 22  1  0  0  0  0
 24 26  1  0  0  0  0
 25 24  1  0  0  0  0
 26 20  2  0  0  0  0
M  END
>  <minimizedAffinity>
-4.92285061

>  <minimizedRMSD>
0.966320872

$$$$
