
 OpenBabel03262519263D

 43 48  0  0  0  0  0  0  0  0999 V2000
   39.2370   23.4630   32.4350 C   0  0  0  0  0  0  0  0  0  0  0  0
   40.0440   22.3720   32.7410 C   0  0  0  0  0  0  0  0  0  0  0  0
   39.5920   21.0560   32.6400 C   0  0  0  0  0  0  0  0  0  0  0  0
   38.2910   20.8070   32.2210 C   0  0  0  0  0  0  0  0  0  0  0  0
   37.4690   21.8660   31.9110 C   0  0  0  0  0  0  0  0  0  0  0  0
   36.1940   21.6430   31.4770 C   0  0  0  0  0  0  0  0  0  0  0  0
   35.3370   22.6540   31.1320 C   0  0  0  0  0  0  0  0  0  0  0  0
   35.8220   23.9590   31.2410 C   0  0  0  0  0  0  0  0  0  0  0  0
   37.1210   24.1530   31.6860 C   0  0  0  0  0  0  0  0  0  0  0  0
   37.9680   23.1460   32.0280 C   0  0  0  0  0  0  0  0  0  0  0  0
   41.0540   22.6030   33.0640 H   0  0  0  0  0  0  0  0  0  0  0  0
   40.2360   20.2280   32.8830 H   0  0  0  0  0  0  0  0  0  0  0  0
   37.9560   19.7910   32.1490 H   0  0  0  0  0  0  0  0  0  0  0  0
   35.8930   20.6070   31.4210 H   0  0  0  0  0  0  0  0  0  0  0  0
   34.3460   22.3200   30.8020 H   0  0  0  0  0  0  0  0  0  0  0  0
   35.0370   24.6370   30.9350 H   0  0  0  0  0  0  0  0  0  0  0  0
   39.7460   24.7990   32.5560 C   0  0  0  0  0  0  0  0  0  0  0  0
   39.7100   25.5160   33.7660 C   0  0  0  0  0  0  0  0  0  0  0  0
   40.2390   26.8100   33.7700 C   0  0  0  0  0  0  0  0  0  0  0  0
   40.7670   27.3260   32.6200 N   0  0  0  0  0  0  0  0  0  0  0  0
   40.7900   26.6110   31.4750 C   0  0  0  0  0  0  0  0  0  0  0  0
   40.2920   25.3910   31.4690 N   0  0  0  0  0  0  0  0  0  0  0  0
   40.2300   27.3900   34.6710 H   0  0  0  0  0  0  0  0  0  0  0  0
   41.2000   26.9900   30.5570 H   0  0  0  0  0  0  0  0  0  0  0  0
   39.1790   24.9400   34.9050 N   0  0  0  0  0  0  0  0  0  0  0  0
   37.9300   25.0980   35.3760 C   0  0  0  0  0  0  0  0  0  0  0  0
   37.7250   24.3950   36.5060 N   0  0  0  0  0  0  0  0  0  0  0  0
   38.8950   23.7570   36.7720 C   0  0  0  0  0  0  0  0  0  0  0  0
   39.3150   22.9090   37.7630 C   0  0  0  0  0  0  0  0  0  0  0  0
   40.5550   22.3830   37.8280 N   0  0  0  0  0  0  0  0  0  0  0  0
   41.4040   22.7490   36.8250 C   0  0  0  0  0  0  0  0  0  0  0  0
   40.9880   23.5710   35.8690 N   0  0  0  0  0  0  0  0  0  0  0  0
   39.7780   24.1090   35.7680 C   0  0  0  0  0  0  0  0  0  0  0  0
   37.1400   25.7040   34.9430 H   0  0  0  0  0  0  0  0  0  0  0  0
   38.5480   22.6860   38.5140 H   0  0  0  0  0  0  0  0  0  0  0  0
   42.4350   22.3990   36.7540 H   0  0  0  0  0  0  0  0  0  0  0  0
   37.2570   25.5960   31.6280 C   0  0  0  0  0  0  0  0  0  0  0  0
   36.7240   26.3010   32.7500 C   0  0  0  0  0  0  0  0  0  0  0  0
   36.6770   27.6810   33.0000 C   0  0  0  0  0  0  0  0  0  0  0  0
   37.2200   28.4170   32.0200 N   0  0  0  0  0  0  0  0  0  0  0  0
   37.7390   27.8280   30.9360 C   0  0  0  0  0  0  0  0  0  0  0  0
   38.2040   28.3540   30.0880 H   0  0  0  0  0  0  0  0  0  0  0  0
   37.7310   26.5200   30.8050 N   0  0  0  0  0  0  0  0  0  0  0  0
  1 17  1  0  0  0  0
  1  2  1  0  0  0  0
  2 11  1  0  0  0  0
  3  2  2  0  0  0  0
  3 12  1  0  0  0  0
  4  3  1  0  0  0  0
  5 10  1  0  0  0  0
  5  4  2  0  0  0  0
  6  5  1  0  0  0  0
  7  8  1  0  0  0  0
  7  6  2  0  0  0  0
  8  9  2  0  0  0  0
  9 10  1  0  0  0  0
 10  1  2  0  0  0  0
 13  4  1  0  0  0  0
 14  6  1  0  0  0  0
 15  7  1  0  0  0  0
 16  8  1  0  0  0  0
 17 18  1  0  0  0  0
 18 19  2  0  0  0  0
 18 25  1  0  0  0  0
 19 23  1  0  0  0  0
 20 19  1  0  0  0  0
 21 20  2  0  0  0  0
 22 21  1  0  0  0  0
 22 17  2  0  0  0  0
 24 21  1  0  0  0  0
 25 26  1  0  0  0  0
 25 33  1  0  0  0  0
 26 27  2  0  0  0  0
 27 28  1  0  0  0  0
 28 29  1  0  0  0  0
 29 30  2  0  0  0  0
 29 35  1  0  0  0  0
 31 30  1  0  0  0  0
 32 31  2  0  0  0  0
 33 32  1  0  0  0  0
 33 28  2  0  0  0  0
 34 26  1  0  0  0  0
 36 31  1  0  0  0  0
 37  9  1  0  0  0  0
 37 38  1  0  0  0  0
 38 39  2  0  0  0  0
 40 39  1  0  0  0  0
 41 40  2  0  0  0  0
 42 41  1  0  0  0  0
 43 41  1  0  0  0  0
 43 37  2  0  0  0  0
M  END
>  <minimizedAffinity>
-6.18544817

>  <minimizedRMSD>
1.52232993

$$$$
