
 OpenBabel03262520003D

 33 36  0  0  1  0  0  0  0  0999 V2000
   39.1600   24.3530   36.1080 C   0  0  1  0  0  0  0  0  0  0  0  0
   37.8370   24.8860   36.2840 C   0  0  0  0  0  0  0  0  0  0  0  0
   38.2290   23.5200   36.9340 C   0  0  1  0  0  0  0  0  0  0  0  0
   39.9890   24.8940   36.6660 H   0  0  0  0  0  0  0  0  0  0  0  0
   37.6870   25.7260   36.9920 H   0  0  0  0  0  0  0  0  0  0  0  0
   37.0490   24.8610   35.5100 H   0  0  0  0  0  0  0  0  0  0  0  0
   39.4690   23.9140   33.6600 C   0  0  0  0  0  0  0  0  0  0  0  0
   40.1700   23.0040   32.8820 C   0  0  0  0  0  0  0  0  0  0  0  0
   40.8060   22.2200   33.7900 N   0  0  0  0  0  0  0  0  0  0  0  0
   40.4840   22.6580   35.0070 C   0  0  0  0  0  0  0  0  0  0  0  0
   39.6600   23.7010   34.9530 N   0  0  0  0  0  0  0  0  0  0  0  0
   40.1480   23.0050   31.7810 H   0  0  0  0  0  0  0  0  0  0  0  0
   40.9470   22.0900   35.8090 H   0  0  0  0  0  0  0  0  0  0  0  0
   38.6360   24.9900   33.1310 C   0  0  0  0  0  0  0  0  0  0  0  0
   39.1550   26.3010   33.0590 C   0  0  0  0  0  0  0  0  0  0  0  0
   38.3150   27.3130   32.5370 C   0  0  0  0  0  0  0  0  0  0  0  0
   37.0660   26.9420   32.1420 N   0  0  0  0  0  0  0  0  0  0  0  0
   36.6100   25.6770   32.2280 C   0  0  0  0  0  0  0  0  0  0  0  0
   37.3900   24.6910   32.7230 N   0  0  0  0  0  0  0  0  0  0  0  0
   40.1620   26.4940   33.4000 H   0  0  0  0  0  0  0  0  0  0  0  0
   38.6900   28.3190   32.4730 H   0  0  0  0  0  0  0  0  0  0  0  0
   35.6030   25.5570   31.8740 H   0  0  0  0  0  0  0  0  0  0  0  0
   37.2420   22.5050   36.4530 C   0  0  0  0  0  0  0  0  0  0  0  0
   36.1930   21.9180   37.0840 C   0  0  0  0  0  3  0  0  0  0  0  0
   35.4450   21.0010   36.3750 C   0  0  0  0  0  3  0  0  0  0  0  0
   35.7260   20.6850   35.1020 N   0  0  0  0  0  0  0  0  0  0  0  0
   36.7700   21.2730   34.4840 C   0  0  0  0  0  0  0  0  0  0  0  0
   36.9450   20.9780   33.4630 H   0  0  0  0  0  0  0  0  0  0  0  0
   37.5150   22.1730   35.1570 N   0  0  0  0  0  0  0  0  0  0  0  0
   38.3270   23.6520   38.4360 C   0  0  0  0  0  0  0  0  0  0  0  0
   37.6440   22.6230   39.0490 F   0  0  0  0  0  0  0  0  0  0  0  0
   39.7180   23.4010   38.8120 F   0  0  0  0  0  0  0  0  0  0  0  0
   38.0350   24.8710   38.9110 F   0  0  0  0  0  0  0  0  0  0  0  0
  1  2  1  0  0  0  0
  1  4  1  1  0  0  0
  1  3  1  0  0  0  0
  2  3  1  0  0  0  0
  2  5  1  0  0  0  0
  3 30  1  1  0  0  0
  6  2  1  0  0  0  0
  7 11  1  0  0  0  0
  8  7  2  0  0  0  0
  8  9  1  0  0  0  0
  9 10  2  0  0  0  0
 10 13  1  0  0  0  0
 11 10  1  0  0  0  0
 11  1  1  0  0  0  0
 12  8  1  0  0  0  0
 14  7  1  0  0  0  0
 15 14  1  0  0  0  0
 15 20  1  0  0  0  0
 16 15  2  0  0  0  0
 17 18  2  0  0  0  0
 17 16  1  0  0  0  0
 18 19  1  0  0  0  0
 19 14  2  0  0  0  0
 21 16  1  0  0  0  0
 22 18  1  0  0  0  0
 23  3  1  0  0  0  0
 23 24  1  0  0  0  0
 25 24  2  0  0  0  0
 26 25  1  0  0  0  0
 27 26  2  0  0  0  0
 27 29  1  0  0  0  0
 28 27  1  0  0  0  0
 29 23  2  0  0  0  0
 30 32  1  0  0  0  0
 30 33  1  0  0  0  0
 30 31  1  0  0  0  0
M  END
>  <minimizedAffinity>
-5.3062501

>  <minimizedRMSD>
2.05920482

$$$$
