
 OpenBabel03262517463D

 29 32  0  0  0  0  0  0  0  0999 V2000
   39.7670   22.8130   37.7860 C   0  0  0  0  0  0  0  0  0  0  0  0
   38.7350   23.4270   38.5180 C   0  0  0  0  0  0  0  0  0  0  0  0
   37.6910   24.0470   37.7930 C   0  0  0  0  0  0  0  0  0  0  0  0
   37.7740   23.9960   36.4240 N   0  0  0  0  0  0  0  0  0  0  0  0
   38.7760   23.3980   35.7570 C   0  0  0  0  0  0  0  0  0  0  0  0
   39.7550   22.8170   36.4570 N   0  0  0  0  0  0  0  0  0  0  0  0
   38.7070   23.4360   34.3380 N   0  0  0  0  0  0  0  0  0  0  0  0
   39.2330   22.4420   33.5540 C   0  0  0  0  0  0  0  0  0  0  0  0
   39.0150   22.7480   32.2530 N   0  0  0  0  0  0  0  0  0  0  0  0
   38.3500   23.9340   32.1870 C   0  0  0  0  0  0  0  0  0  0  0  0
   37.8540   24.7530   31.1750 C   0  0  0  0  0  0  0  0  0  0  0  0
   37.2270   25.8960   31.4700 N   0  0  0  0  0  0  0  0  0  0  0  0
   37.0790   26.2450   32.7550 C   0  0  0  0  0  0  0  0  0  0  0  0
   37.5430   25.4820   33.7650 N   0  0  0  0  0  0  0  0  0  0  0  0
   38.1740   24.3330   33.5020 C   0  0  0  0  0  0  0  0  0  0  0  0
   38.1060   24.2140   29.8750 N   0  0  0  0  0  0  0  0  0  0  0  0
   40.5040   22.3750   38.4160 H   0  0  0  0  0  0  0  0  0  0  0  0
   38.6020   23.5070   39.5760 H   0  0  0  0  0  0  0  0  0  0  0  0
   36.8450   24.5510   38.2380 H   0  0  0  0  0  0  0  0  0  0  0  0
   39.7510   21.5380   33.8720 H   0  0  0  0  0  0  0  0  0  0  0  0
   39.0750   24.4890   29.5370 H   0  0  0  0  0  0  0  0  0  0  0  0
   37.5120   23.6240   29.2470 H   0  0  0  0  0  0  0  0  0  0  0  0
   36.3900   27.4980   33.0580 C   0  0  0  0  0  0  0  0  0  0  0  0
   36.5520   28.0950   34.3090 C   0  0  0  0  0  0  0  0  0  0  0  0
   35.8790   29.2820   34.5500 C   0  0  0  0  0  0  0  0  0  0  0  0
   35.0990   29.8400   33.6170 N   0  0  0  0  0  0  0  0  0  0  0  0
   34.9920   29.2010   32.4270 C   0  0  0  0  0  0  0  0  0  0  0  0
   34.3650   29.6520   31.6820 H   0  0  0  0  0  0  0  0  0  0  0  0
   35.6020   28.0400   32.0850 N   0  0  0  0  0  0  0  0  0  0  0  0
  1 17  1  0  0  0  0
  1  2  1  0  0  0  0
  2 18  1  0  0  0  0
  3 19  1  0  0  0  0
  3  2  2  0  0  0  0
  4  3  1  0  0  0  0
  5  4  2  0  0  0  0
  5  6  1  0  0  0  0
  6  1  2  0  0  0  0
  7  5  1  0  0  0  0
  8 20  1  0  0  0  0
  8  7  1  0  0  0  0
  9  8  2  0  0  0  0
 10  9  1  0  0  0  0
 10 15  1  0  0  0  0
 11 12  1  0  0  0  0
 11 10  2  0  0  0  0
 12 13  2  0  0  0  0
 13 23  1  0  0  0  0
 13 14  1  0  0  0  0
 15 14  2  0  0  0  0
 15  7  1  0  0  0  0
 16 11  1  0  0  0  0
 21 16  1  0  0  0  0
 22 16  1  0  0  0  0
 23 24  1  0  0  0  0
 24 25  2  0  0  0  0
 26 25  1  0  0  0  0
 27 26  2  0  0  0  0
 28 27  1  0  0  0  0
 29 27  1  0  0  0  0
 29 23  2  0  0  0  0
M  END
>  <minimizedAffinity>
-5.71300268

>  <minimizedRMSD>
1.94542038

$$$$
