REMARK  Name = 
REMARK  4 active torsions:
REMARK  status: ('A' for Active; 'I' for Inactive)
REMARK    1  A    between atoms: C_1  and  C_6
REMARK    2  A    between atoms: N_5  and  C_12
REMARK    3  A    between atoms: C_14  and  C_15
REMARK    4  A    between atoms: C_14  and  C_27
REMARK                            x       y       z     vdW  Elec       q    Type
REMARK                         _______ _______ _______ _____ _____    ______ ____
ROOT
ATOM      1  C   UNL     1      38.538  23.950  35.899  0.00  0.00    +0.000 C 
ATOM      2  C   UNL     1      38.075  25.228  36.364  0.00  0.00    +0.000 C 
ATOM      3  C   UNL     1      37.558  23.915  37.029  0.00  0.00    +0.000 C 
ATOM      4  H   UNL     1      39.626  23.711  36.168  0.00  0.00    +0.000 HD
ATOM      5  H   UNL     1      37.312  25.811  35.827  0.00  0.00    +0.000 HD
ATOM      6  H   UNL     1      38.737  25.881  36.978  0.00  0.00    +0.000 HD
ENDROOT
BRANCH   1  11
ATOM      7  C   UNL     1      37.870  23.699  33.504  0.00  0.00    +0.000 A 
ATOM      8  C   UNL     1      37.465  22.657  32.669  0.00  0.00    +0.000 A 
ATOM      9  N   UNL     1      37.483  21.567  33.482  0.00  0.00    +0.000 NA
ATOM     10  C   UNL     1      37.872  21.967  34.695  0.00  0.00    +0.000 A 
ATOM     11  N   UNL     1      38.114  23.273  34.729  0.00  0.00    +0.000 N 
ATOM     12  H   UNL     1      37.215  22.796  31.618  0.00  0.00    +0.000 HD
ATOM     13  H   UNL     1      37.916  21.158  35.418  0.00  0.00    +0.000 HD
BRANCH   7  14
ATOM     14  C   UNL     1      38.017  25.082  33.077  0.00  0.00    +0.000 A 
ATOM     15  C   UNL     1      39.299  25.584  32.770  0.00  0.00    +0.000 A 
ATOM     16  C   UNL     1      39.392  26.932  32.357  0.00  0.00    +0.000 A 
ATOM     17  N   UNL     1      38.240  27.651  32.286  0.00  0.00    +0.000 NA
ATOM     18  C   UNL     1      37.030  27.128  32.591  0.00  0.00    +0.000 A 
ATOM     19  N   UNL     1      36.907  25.851  32.986  0.00  0.00    +0.000 NA
ATOM     20  H   UNL     1      40.137  24.911  32.867  0.00  0.00    +0.000 HD
ATOM     21  H   UNL     1      40.365  27.310  32.125  0.00  0.00    +0.000 HD
ATOM     22  H   UNL     1      36.217  27.831  32.482  0.00  0.00    +0.000 HD
ENDBRANCH   7  14
ENDBRANCH   1  11
BRANCH   3  23
ATOM     23  C   UNL     1      36.062  23.936  36.944  0.00  0.00    +0.000 A 
ATOM     24  C   UNL     1      35.166  22.954  36.570  0.00  0.00    +0.000 A 
ATOM     25  C   UNL     1      33.831  23.259  36.588  0.00  0.00    +0.000 A 
ATOM     26  C   UNL     1      33.376  24.511  36.968  0.00  0.00    +0.000 A 
ATOM     27  H   UNL     1      32.313  24.682  36.959  0.00  0.00    +0.000 HD
ATOM     28  C   UNL     1      34.294  25.473  37.337  0.00  0.00    +0.000 A 
ATOM     29  N   UNL     1      35.604  25.165  37.316  0.00  0.00    +0.000 NA
ENDBRANCH   3  23
BRANCH   3  30
ATOM     30  C   UNL     1      38.116  23.767  38.427  0.00  0.00    +0.000 C 
ATOM     31  F   UNL     1      37.519  22.701  39.066  0.00  0.00    +0.000 F 
ATOM     32  F   UNL     1      39.512  23.344  38.306  0.00  0.00    +0.000 F 
ATOM     33  F   UNL     1      38.141  24.900  39.142  0.00  0.00    +0.000 F 
ENDBRANCH   3  30
TORSDOF 4
