
 OpenBabel03262519093D

 35 38  0  0  1  0  0  0  0  0999 V2000
   37.0210   25.1550   31.7370 C   0  0  0  0  0  0  0  0  0  0  0  0
   37.0900   25.9080   30.9190 H   0  0  0  0  0  0  0  0  0  0  0  0
   35.9500   24.8240   31.7220 H   0  0  0  0  0  0  0  0  0  0  0  0
   37.2110   25.8770   33.0100 C   0  0  0  0  0  0  0  0  0  0  0  0
   36.9840   27.1990   33.3340 C   0  0  0  0  0  0  0  0  0  0  0  0
   37.2080   27.7470   34.5760 C   0  0  0  0  0  0  0  0  0  0  0  0
   37.6980   26.8850   35.5510 C   0  0  0  0  0  0  0  0  0  0  0  0
   37.9160   25.5790   35.2060 C   0  0  0  0  0  0  0  0  0  0  0  0
   37.6850   25.0770   33.9820 N   0  0  0  0  0  0  0  0  0  0  0  0
   36.6040   27.7680   32.4900 H   0  0  0  0  0  0  0  0  0  0  0  0
   36.9730   28.8110   34.6570 H   0  0  0  0  0  0  0  0  0  0  0  0
   37.8570   27.3580   36.5070 H   0  0  0  0  0  0  0  0  0  0  0  0
   38.4310   24.6820   36.2400 C   0  0  0  0  0  0  0  0  0  0  0  0
   39.4340   23.7830   36.0880 C   0  0  0  0  0  0  0  0  0  0  0  0
   39.9210   22.9370   37.0610 C   0  0  0  0  0  0  0  0  0  0  0  0
   39.3370   23.0070   38.3100 C   0  0  0  0  0  0  0  0  0  0  0  0
   39.6290   22.3960   39.1560 H   0  0  0  0  0  0  0  0  0  0  0  0
   38.3140   23.9120   38.4930 C   0  0  0  0  0  0  0  0  0  0  0  0
   37.8970   24.7040   37.4880 N   0  0  0  0  0  0  0  0  0  0  0  0
   39.3250   24.2360   30.8450 C   0  0  2  0  0  0  0  0  0  0  0  0
   38.1830   23.7470   30.0270 C   0  0  0  0  0  0  0  0  0  0  0  0
   37.9910   24.0760   31.4790 C   0  0  2  0  0  0  0  0  0  0  0  0
   40.1000   23.5730   31.2350 H   0  0  0  0  0  0  0  0  0  0  0  0
   38.1800   22.6780   29.6970 H   0  0  0  0  0  0  0  0  0  0  0  0
   37.7650   24.4060   29.2410 H   0  0  0  0  0  0  0  0  0  0  0  0
   37.8310   23.1620   32.1200 H   0  0  0  0  0  0  0  0  0  0  0  0
   40.0590   27.3570   29.0620 C   0  0  0  0  0  0  0  0  0  0  0  0
   40.7790   28.1370   29.9960 C   0  0  0  0  0  0  0  0  0  0  0  0
   40.9950   27.5260   31.2750 C   0  0  0  0  0  0  0  0  0  0  0  0
   40.5090   26.2860   31.4960 N   0  0  0  0  0  0  0  0  0  0  0  0
   39.8170   25.5900   30.5360 C   0  0  0  0  0  0  0  0  0  0  0  0
   39.5890   26.1340   29.3020 N   0  0  0  0  0  0  0  0  0  0  0  0
   39.9280   27.8690   28.1170 H   0  0  0  0  0  0  0  0  0  0  0  0
   41.1420   29.1090   29.7800 H   0  0  0  0  0  0  0  0  0  0  0  0
   41.5380   28.0650   32.0390 H   0  0  0  0  0  0  0  0  0  0  0  0
  1  4  1  0  0  0  0
  2  1  1  0  0  0  0
  3  1  1  0  0  0  0
  4  5  2  0  0  0  0
  4  9  1  0  0  0  0
  5  6  1  0  0  0  0
  6 11  1  0  0  0  0
  6  7  2  0  0  0  0
  7 12  1  0  0  0  0
  8  7  1  0  0  0  0
  8 13  1  0  0  0  0
  9  8  2  0  0  0  0
 10  5  1  0  0  0  0
 13 19  1  0  0  0  0
 14 13  2  0  0  0  0
 14 15  1  0  0  0  0
 15 16  2  0  0  0  0
 16 18  1  0  0  0  0
 16 17  1  0  0  0  0
 19 18  2  0  0  0  0
 20 23  1  1  0  0  0
 20 22  1  0  0  0  0
 21 20  1  0  0  0  0
 21 22  1  0  0  0  0
 22  1  1  0  0  0  0
 22 26  1  1  0  0  0
 24 21  1  0  0  0  0
 25 21  1  0  0  0  0
 27 32  2  0  0  0  0
 27 28  1  0  0  0  0
 28 29  2  0  0  0  0
 29 30  1  0  0  0  0
 29 35  1  0  0  0  0
 31 20  1  0  0  0  0
 31 30  2  0  0  0  0
 32 31  1  0  0  0  0
 33 27  1  0  0  0  0
 34 28  1  0  0  0  0
M  END
>  <minimizedAffinity>
-4.74346924

>  <minimizedRMSD>
7.52092838

$$$$
