
 OpenBabel03262519573D

 30 33  0  0  1  0  0  0  0  0999 V2000
   37.4020   22.2060   33.8170 C   0  0  0  0  0  0  0  0  0  0  0  0
   37.8120   21.9530   35.1290 C   0  0  0  0  0  0  0  0  0  0  0  0
   38.3520   23.1390   35.5270 N   0  0  0  0  0  0  0  0  0  0  0  0
   38.2540   23.9930   34.5210 C   0  0  0  0  0  0  0  0  0  0  0  0
   37.6700   23.4480   33.4450 N   0  0  0  0  0  0  0  0  0  0  0  0
   37.7400   21.0530   35.7260 H   0  0  0  0  0  0  0  0  0  0  0  0
   38.6230   25.0270   34.5970 H   0  0  0  0  0  0  0  0  0  0  0  0
   36.7560   21.2260   32.9580 C   0  0  0  0  0  0  0  0  0  0  0  0
   37.5100   20.3940   32.1310 C   0  0  0  0  0  0  0  0  0  0  0  0
   36.8300   19.4600   31.3180 C   0  0  0  0  0  0  0  0  0  0  0  0
   35.4910   19.4300   31.3910 N   0  0  0  0  0  0  0  0  0  0  0  0
   34.7770   20.2420   32.1970 C   0  0  0  0  0  0  0  0  0  0  0  0
   35.4020   21.1410   32.9820 N   0  0  0  0  0  0  0  0  0  0  0  0
   38.5840   20.4470   32.0980 H   0  0  0  0  0  0  0  0  0  0  0  0
   37.3430   18.7940   30.6620 H   0  0  0  0  0  0  0  0  0  0  0  0
   33.7000   20.2460   32.2830 H   0  0  0  0  0  0  0  0  0  0  0  0
   37.4350   24.1460   32.2100 C   0  0  1  0  0  0  0  0  0  0  0  0
   36.1160   24.4060   31.6700 C   0  0  0  0  0  0  0  0  0  0  0  0
   36.8200   25.5210   32.4290 C   0  0  2  0  0  0  0  0  0  0  0  0
   38.2880   24.0870   31.4930 H   0  0  0  0  0  0  0  0  0  0  0  0
   35.9810   24.5070   30.5710 H   0  0  0  0  0  0  0  0  0  0  0  0
   35.1670   24.0430   32.1460 H   0  0  0  0  0  0  0  0  0  0  0  0
   36.4120   25.7850   33.4220 H   0  0  0  0  0  0  0  0  0  0  0  0
   37.3160   26.6160   31.5530 C   0  0  0  0  0  0  0  0  0  0  0  0
   36.3870   27.3350   30.8280 C   0  0  0  0  0  3  0  0  0  0  0  0
   36.8510   28.3630   30.0050 C   0  0  0  0  0  3  0  0  0  0  0  0
   38.2300   28.5860   29.9780 C   0  0  0  0  0  0  0  0  0  0  0  0
   38.6590   29.3640   29.3650 H   0  0  0  0  0  0  0  0  0  0  0  0
   39.1370   27.8610   30.7060 C   0  0  0  0  0  3  0  0  0  0  0  0
   38.6210   26.8690   31.4910 N   0  0  0  0  0  0  0  0  0  0  0  0
  1  2  2  0  0  0  0
  2  3  1  0  0  0  0
  2  6  1  0  0  0  0
  4  7  1  0  0  0  0
  4  3  2  0  0  0  0
  5  1  1  0  0  0  0
  5  4  1  0  0  0  0
  8 13  1  0  0  0  0
  8  1  1  0  0  0  0
  9  8  2  0  0  0  0
 10 11  2  0  0  0  0
 10  9  1  0  0  0  0
 11 12  1  0  0  0  0
 12 16  1  0  0  0  0
 12 13  2  0  0  0  0
 14  9  1  0  0  0  0
 15 10  1  0  0  0  0
 17 20  1  6  0  0  0
 17 19  1  0  0  0  0
 17  5  1  0  0  0  0
 18 22  1  0  0  0  0
 18 17  1  0  0  0  0
 18 19  1  0  0  0  0
 19 23  1  1  0  0  0
 21 18  1  0  0  0  0
 24 19  1  0  0  0  0
 25 24  2  0  0  0  0
 26 25  1  0  0  0  0
 27 26  2  0  0  0  0
 27 29  1  0  0  0  0
 28 27  1  0  0  0  0
 29 30  2  0  0  0  0
 30 24  1  0  0  0  0
M  END
>  <minimizedAffinity>
-4.33504057

>  <minimizedRMSD>
7.09723234

$$$$
