
 OpenBabel03262516103D

 26 28  0  0  0  0  0  0  0  0999 V2000
   41.0880   22.5650   37.0210 C   0  0  0  0  0  0  0  0  0  0  0  0
   41.9330   23.5910   36.6250 C   0  0  0  0  0  0  0  0  0  0  0  0
   43.2720   23.2920   36.3440 C   0  0  0  0  0  0  0  0  0  0  0  0
   43.6730   21.9910   36.4780 N   0  0  0  0  0  0  0  0  0  0  0  0
   42.8230   20.9980   36.8690 C   0  0  0  0  0  0  0  0  0  0  0  0
   41.5390   21.3150   37.1330 N   0  0  0  0  0  0  0  0  0  0  0  0
   41.6110   24.6150   36.5210 H   0  0  0  0  0  0  0  0  0  0  0  0
   43.1680   19.9850   36.9650 H   0  0  0  0  0  0  0  0  0  0  0  0
   39.7000   22.8860   37.3120 C   0  0  0  0  0  0  0  0  0  0  0  0
   38.6730   22.8520   36.3850 C   0  0  0  0  0  0  0  0  0  0  0  0
   37.5480   23.2180   37.0710 C   0  0  0  0  0  0  0  0  0  0  0  0
   37.9090   23.4650   38.3920 C   0  0  0  0  0  0  0  0  0  0  0  0
   39.1970   23.2480   38.4550 O   0  0  0  0  0  0  0  0  0  0  0  0
   38.7830   22.5850   35.3390 H   0  0  0  0  0  0  0  0  0  0  0  0
   36.5500   23.2980   36.6490 H   0  0  0  0  0  0  0  0  0  0  0  0
   37.2430   23.7780   39.2050 H   0  0  0  0  0  0  0  0  0  0  0  0
   44.2160   24.3550   35.9210 C   0  0  0  0  0  0  0  0  0  0  0  0
   44.8990   23.9080   35.1730 H   0  0  0  0  0  0  0  0  0  0  0  0
   43.7130   25.2140   35.4570 H   0  0  0  0  0  0  0  0  0  0  0  0
   44.9720   24.7750   37.1420 C   0  0  0  0  0  0  0  0  0  0  0  0
   44.6670   25.5850   38.2080 C   0  0  0  0  0  0  0  0  0  0  0  0
   45.7940   25.5700   39.0060 C   0  0  0  0  0  0  0  0  0  0  0  0
   45.8800   26.1110   39.9290 H   0  0  0  0  0  0  0  0  0  0  0  0
   46.7370   24.7960   38.4580 N   0  0  0  0  0  0  0  0  0  0  0  0
   46.2400   24.3230   37.3420 N   0  0  0  0  0  0  0  0  0  0  0  0
   47.7000   24.5610   38.7860 H   0  0  0  0  0  0  0  0  0  0  0  0
  1  6  1  0  0  0  0
  1  9  1  0  0  0  0
  2  1  2  0  0  0  0
  3  4  2  0  0  0  0
  3  2  1  0  0  0  0
  4  5  1  0  0  0  0
  5  8  1  0  0  0  0
  5  6  2  0  0  0  0
  7  2  1  0  0  0  0
  9 13  1  0  0  0  0
 10 11  1  0  0  0  0
 10  9  2  0  0  0  0
 11 12  2  0  0  0  0
 12 13  1  0  0  0  0
 12 16  1  0  0  0  0
 14 10  1  0  0  0  0
 15 11  1  0  0  0  0
 17  3  1  0  0  0  0
 17 20  1  0  0  0  0
 18 17  1  0  0  0  0
 19 17  1  0  0  0  0
 20 25  2  0  0  0  0
 20 21  1  0  0  0  0
 21 22  2  0  0  0  0
 22 23  1  0  0  0  0
 24 26  1  0  0  0  0
 24 22  1  0  0  0  0
 25 24  1  0  0  0  0
M  END
>  <minimizedAffinity>
-4.71623182

>  <minimizedRMSD>
0.732397854

$$$$
