
 OpenBabel03262519563D

 30 33  0  0  1  0  0  0  0  0999 V2000
   38.1710   23.9230   34.6080 C   0  0  0  0  0  0  0  0  0  0  0  0
   38.3480   25.1610   33.9810 C   0  0  0  0  0  0  0  0  0  0  0  0
   37.9430   24.9280   32.7010 N   0  0  0  0  0  0  0  0  0  0  0  0
   37.5680   23.6620   32.6120 C   0  0  0  0  0  0  0  0  0  0  0  0
   37.6960   23.0100   33.7750 N   0  0  0  0  0  0  0  0  0  0  0  0
   38.7130   26.1010   34.3740 H   0  0  0  0  0  0  0  0  0  0  0  0
   37.1980   23.2300   31.6700 H   0  0  0  0  0  0  0  0  0  0  0  0
   38.4700   23.6650   36.0080 C   0  0  0  0  0  0  0  0  0  0  0  0
   39.6520   23.0240   36.3780 C   0  0  0  0  0  0  0  0  0  0  0  0
   39.8910   22.7990   37.7520 C   0  0  0  0  0  0  0  0  0  0  0  0
   38.9610   23.2180   38.6230 N   0  0  0  0  0  0  0  0  0  0  0  0
   37.8230   23.8370   38.2470 C   0  0  0  0  0  0  0  0  0  0  0  0
   37.5720   24.0630   36.9430 N   0  0  0  0  0  0  0  0  0  0  0  0
   40.3760   22.7010   35.6510 H   0  0  0  0  0  0  0  0  0  0  0  0
   40.7720   22.3150   38.1070 H   0  0  0  0  0  0  0  0  0  0  0  0
   37.0520   24.1890   38.9180 H   0  0  0  0  0  0  0  0  0  0  0  0
   37.3630   21.6250   33.9680 C   0  0  1  0  0  0  0  0  0  0  0  0
   36.1730   21.1710   34.6590 C   0  0  0  0  0  0  0  0  0  0  0  0
   36.1610   21.1960   33.1370 C   0  0  2  0  0  0  0  0  0  0  0  0
   38.2480   20.9460   33.9570 H   0  0  0  0  0  0  0  0  0  0  0  0
   36.1790   20.1880   35.1790 H   0  0  0  0  0  0  0  0  0  0  0  0
   35.4340   21.8620   35.1430 H   0  0  0  0  0  0  0  0  0  0  0  0
   35.5290   21.9640   32.6550 H   0  0  0  0  0  0  0  0  0  0  0  0
   36.2310   19.8450   32.5200 C   0  0  0  0  0  0  0  0  0  0  0  0
   35.3690   18.8750   32.9910 C   0  0  0  0  0  3  0  0  0  0  0  0
   35.4330   17.6060   32.4110 C   0  0  0  0  0  3  0  0  0  0  0  0
   36.3710   17.4140   31.3930 C   0  0  0  0  0  0  0  0  0  0  0  0
   36.4750   16.4590   30.9020 H   0  0  0  0  0  0  0  0  0  0  0  0
   37.2180   18.3910   30.9400 C   0  0  0  0  0  3  0  0  0  0  0  0
   37.1070   19.6100   31.5460 N   0  0  0  0  0  0  0  0  0  0  0  0
  1  8  1  0  0  0  0
  2  6  1  0  0  0  0
  2  1  2  0  0  0  0
  3  2  1  0  0  0  0
  4  3  2  0  0  0  0
  4  5  1  0  0  0  0
  5 17  1  0  0  0  0
  5  1  1  0  0  0  0
  7  4  1  0  0  0  0
  8  9  2  0  0  0  0
  8 13  1  0  0  0  0
  9 10  1  0  0  0  0
 10 15  1  0  0  0  0
 10 11  2  0  0  0  0
 12 11  1  0  0  0  0
 12 16  1  0  0  0  0
 13 12  2  0  0  0  0
 14  9  1  0  0  0  0
 17 20  1  1  0  0  0
 17 18  1  0  0  0  0
 18 22  1  0  0  0  0
 18 21  1  0  0  0  0
 19 23  1  6  0  0  0
 19 17  1  0  0  0  0
 19 18  1  0  0  0  0
 24 25  1  0  0  0  0
 24 19  1  0  0  0  0
 26 25  2  0  0  0  0
 27 26  1  0  0  0  0
 28 27  1  0  0  0  0
 29 27  2  0  0  0  0
 29 30  1  0  0  0  0
 30 24  2  0  0  0  0
M  END
>  <minimizedAffinity>
-5.00772476

>  <minimizedRMSD>
0.923582613

$$$$
