
     RDKit          3D

 33 36  0  0  0  0  0  0  0  0999 V2000
   38.0292   23.4622   34.6204 C   0  0  0  0  0  0  0  0  0  0  0  0
   38.2687   24.5675   33.7968 C   0  0  0  0  0  0  0  0  0  0  0  0
   37.7648   24.1798   32.5919 N   0  0  0  0  0  0  0  0  0  0  0  0
   37.2802   22.9564   32.7232 C   0  0  0  0  0  0  0  0  0  0  0  0
   37.4269   22.4802   33.9670 N   0  0  0  0  0  0  0  0  0  0  0  0
   38.3952   23.3940   36.0257 C   0  0  0  0  0  0  0  0  0  0  0  0
   39.5934   22.8017   36.4236 C   0  0  0  0  0  0  0  0  0  0  0  0
   39.8975   22.7636   37.8033 C   0  0  0  0  0  0  0  0  0  0  0  0
   39.0097   23.3029   38.6522 N   0  0  0  0  0  0  0  0  0  0  0  0
   37.8551   23.8719   38.2491 C   0  0  0  0  0  0  0  0  0  0  0  0
   37.5424   23.9207   36.9397 N   0  0  0  0  0  0  0  0  0  0  0  0
   36.9915   21.1779   34.3927 C   0  0  1  0  0  0  0  0  0  0  0  0
   35.8524   20.9529   35.2589 C   0  0  0  0  0  0  0  0  0  0  0  0
   35.6681   20.7733   33.7593 C   0  0  2  0  0  0  0  0  0  0  0  0
   38.7359   25.5176   34.0179 H   0  0  0  0  0  0  0  0  0  0  0  0
   36.8151   22.4211   31.8806 H   0  0  0  0  0  0  0  0  0  0  0  0
   40.2825   22.3786   35.7137 H   0  0  0  0  0  0  0  0  0  0  0  0
   40.7946   22.3269   38.1785 H   0  0  0  0  0  0  0  0  0  0  0  0
   37.1171   24.3156   38.9023 H   0  0  0  0  0  0  0  0  0  0  0  0
   37.8027   20.4123   34.3923 H   0  0  0  0  0  0  0  0  0  0  0  0
   35.8268   20.0541   35.9145 H   0  0  0  0  0  0  0  0  0  0  0  0
   35.2412   21.7778   35.7093 H   0  0  0  0  0  0  0  0  0  0  0  0
   35.0582   21.5315   33.2358 H   0  0  0  0  0  0  0  0  0  0  0  0
   35.5407   19.3511   33.3418 C   0  0  0  0  0  0  0  0  0  0  0  0
   34.4075   18.6633   33.7282 C   0  0  0  0  0  0  0  0  0  0  0  0
   34.2869   17.3285   33.3369 C   0  0  0  0  0  0  0  0  0  0  0  0
   35.3294   16.7873   32.5791 C   0  0  0  0  0  0  0  0  0  0  0  0
   35.3020   15.7617   32.2427 H   0  0  0  0  0  0  0  0  0  0  0  0
   36.4468   17.4872   32.2057 C   0  0  0  0  0  0  0  0  0  0  0  0
   36.5061   18.7880   32.6189 N   0  0  0  0  0  0  0  0  0  0  0  0
   33.5935   19.0965   34.3235 H   0  0  0  0  0  0  0  0  0  0  0  0
   33.4169   16.7209   33.6062 H   0  0  0  0  0  0  0  0  0  0  0  0
   37.2387   17.0370   31.6167 H   0  0  0  0  0  0  0  0  0  0  0  0
  1  6  1  0
  2  1  2  0
  3  4  2  0
  3  2  1  0
  4  5  1  0
  5 12  1  0
  5  1  1  0
  6  7  2  0
  6 11  1  0
  7  8  1  0
  8  9  2  0
 10  9  1  0
 11 10  2  0
 12 13  1  0
 14 12  1  0
 14 13  1  0
  2 15  1  0
  4 16  1  0
  7 17  1  0
  8 18  1  0
 10 19  1  0
 12 20  1  1
 13 21  1  0
 13 22  1  0
 14 23  1  6
 24 25  2  0
 25 26  1  0
 26 27  2  0
 27 28  1  0
 27 29  1  0
 29 30  2  0
 30 24  1  0
 25 31  1  0
 26 32  1  0
 29 33  1  0
 14 24  1  0
M  ISO  8  15  14  16  14  17  14  18  14  19  14  20  13  21  13  22  13
M  ISO  2  23  13  28  16
M  END
>  <DihAtoms>  (1) 
11,13,23,24

>  <DihDeg>  (1) 
-153.80032475603514

$$$$
