
 OpenBabel03262519363D

 31 33  0  0  1  0  0  0  0  0999 V2000
   37.6900   25.4860   34.3610 N   0  0  0  0  0  0  0  0  0  0  0  0
   37.1750   25.4260   33.0350 C   0  0  0  0  0  0  0  0  0  0  0  0
   36.7540   26.8450   32.7140 C   0  0  0  0  0  0  0  0  0  0  0  0
   37.1080   27.6500   33.9800 C   0  0  0  0  0  0  0  0  0  0  0  0
   38.2780   26.7880   34.4550 C   0  0  2  0  0  0  0  0  0  0  0  0
   37.8420   25.0490   32.2610 H   0  0  0  0  0  0  0  0  0  0  0  0
   36.2730   24.7510   33.0400 H   0  0  0  0  0  0  0  0  0  0  0  0
   37.2210   27.2620   31.8110 H   0  0  0  0  0  0  0  0  0  0  0  0
   35.6290   26.8790   32.6670 H   0  0  0  0  0  0  0  0  0  0  0  0
   37.4290   28.6590   33.6970 H   0  0  0  0  0  0  0  0  0  0  0  0
   36.3110   27.6010   34.7210 H   0  0  0  0  0  0  0  0  0  0  0  0
   38.4950   27.0040   35.5140 H   0  0  0  0  0  0  0  0  0  0  0  0
   39.4850   26.9940   33.6390 C   0  0  0  0  0  0  0  0  0  0  0  0
   40.7380   27.0230   34.2650 C   0  0  0  0  0  0  0  0  0  0  0  0
   41.9500   27.2070   33.6310 C   0  0  0  0  0  0  0  0  0  0  0  0
   41.9090   27.3750   32.2630 C   0  0  0  0  0  0  0  0  0  0  0  0
   42.8350   27.5220   31.7220 H   0  0  0  0  0  0  0  0  0  0  0  0
   40.6620   27.3460   31.6470 C   0  0  0  0  0  0  0  0  0  0  0  0
   39.5120   27.1620   32.3280 N   0  0  0  0  0  0  0  0  0  0  0  0
   38.7310   24.5100   34.6130 C   0  0  0  0  0  0  0  0  0  0  0  0
   39.7280   24.8290   34.2330 H   0  0  0  0  0  0  0  0  0  0  0  0
   38.4800   23.6010   34.0340 H   0  0  0  0  0  0  0  0  0  0  0  0
   37.9240   24.1650   38.3000 C   0  0  0  0  0  0  0  0  0  0  0  0
   37.8450   24.5790   36.9740 C   0  0  0  0  0  0  0  0  0  0  0  0
   38.7730   24.0970   36.0490 C   0  0  0  0  0  0  0  0  0  0  0  0
   39.7310   23.2220   36.5080 N   0  0  0  0  0  0  0  0  0  0  0  0
   39.7850   22.8370   37.7990 C   0  0  0  0  0  0  0  0  0  0  0  0
   38.8890   23.3060   38.6800 N   0  0  0  0  0  0  0  0  0  0  0  0
   37.1960   24.5500   39.0010 H   0  0  0  0  0  0  0  0  0  0  0  0
   37.0920   25.2570   36.6480 H   0  0  0  0  0  0  0  0  0  0  0  0
   40.5780   22.1400   38.0750 H   0  0  0  0  0  0  0  0  0  0  0  0
  1  5  1  0  0  0  0
  1 20  1  0  0  0  0
  2  7  1  0  0  0  0
  2  1  1  0  0  0  0
  3  2  1  0  0  0  0
  3  4  1  0  0  0  0
  4  5  1  0  0  0  0
  4 11  1  0  0  0  0
  5 12  1  1  0  0  0
  6  2  1  0  0  0  0
  8  3  1  0  0  0  0
  9  3  1  0  0  0  0
 10  4  1  0  0  0  0
 13 14  1  0  0  0  0
 13  5  1  0  0  0  0
 15 14  2  0  0  0  0
 16 15  1  0  0  0  0
 17 16  1  0  0  0  0
 18 16  2  0  0  0  0
 18 19  1  0  0  0  0
 19 13  2  0  0  0  0
 20 25  1  0  0  0  0
 21 20  1  0  0  0  0
 22 20  1  0  0  0  0
 23 28  1  0  0  0  0
 23 29  1  0  0  0  0
 24 23  2  0  0  0  0
 25 26  2  0  0  0  0
 25 24  1  0  0  0  0
 26 27  1  0  0  0  0
 27 31  1  0  0  0  0
 27 28  2  0  0  0  0
 30 24  1  0  0  0  0
M  END
>  <minimizedAffinity>
-4.75599146

>  <minimizedRMSD>
0.378500342

$$$$
