
 OpenBabel03262517213D

 30 32  0  0  0  0  0  0  0  0999 V2000
   38.4350   23.9970   34.3470 N   0  0  0  0  0  0  0  0  0  0  0  0
   38.5370   23.1370   33.3360 N   0  0  0  0  0  0  0  0  0  0  0  0
   38.3550   23.7320   32.1630 C   0  0  0  0  0  0  0  0  0  0  0  0
   38.1200   25.0760   32.4670 C   0  0  0  0  0  0  0  0  0  0  0  0
   38.1740   25.2220   33.8470 C   0  0  0  0  0  0  0  0  0  0  0  0
   38.3830   23.2780   31.1810 H   0  0  0  0  0  0  0  0  0  0  0  0
   37.5060   23.7650   36.5720 C   0  0  0  0  0  0  0  0  0  0  0  0
   38.5780   23.6710   35.7010 C   0  0  0  0  0  0  0  0  0  0  0  0
   39.8300   23.2420   36.1850 C   0  0  0  0  0  0  0  0  0  0  0  0
   39.9070   22.9390   37.5180 N   0  0  0  0  0  0  0  0  0  0  0  0
   38.8590   23.0360   38.3420 C   0  0  0  0  0  0  0  0  0  0  0  0
   37.6580   23.4490   37.8670 N   0  0  0  0  0  0  0  0  0  0  0  0
   36.5230   24.0880   36.2540 H   0  0  0  0  0  0  0  0  0  0  0  0
   40.6720   23.1680   35.5070 H   0  0  0  0  0  0  0  0  0  0  0  0
   39.1040   22.7550   39.3570 H   0  0  0  0  0  0  0  0  0  0  0  0
   37.9830   26.4510   34.5570 N   0  0  0  0  0  0  0  0  0  0  0  0
   39.0150   27.0790   35.3200 C   0  0  0  0  0  0  0  0  0  0  0  0
   40.2190   26.9780   34.8210 N   0  0  0  0  0  0  0  0  0  0  0  0
   38.6100   27.7380   36.5300 N   0  0  0  0  0  0  0  0  0  0  0  0
   40.9590   27.4350   35.3900 H   0  0  0  0  0  0  0  0  0  0  0  0
   37.0130   26.8770   34.4820 H   0  0  0  0  0  0  0  0  0  0  0  0
   38.6380   28.7280   36.8100 H   0  0  0  0  0  0  0  0  0  0  0  0
   38.1920   27.2570   37.3630 H   0  0  0  0  0  0  0  0  0  0  0  0
   37.8610   26.1400   31.5020 C   0  0  0  0  0  0  0  0  0  0  0  0
   38.8380   26.4980   30.6080 C   0  0  0  0  0  0  0  0  0  0  0  0
   38.5530   27.5230   29.6980 C   0  0  0  0  0  0  0  0  0  0  0  0
   37.3060   28.0990   29.7680 C   0  0  0  0  0  0  0  0  0  0  0  0
   37.0960   28.8920   29.0570 H   0  0  0  0  0  0  0  0  0  0  0  0
   36.3280   27.7310   30.6720 C   0  0  0  0  0  0  0  0  0  0  0  0
   36.6500   26.7310   31.5350 N   0  0  0  0  0  0  0  0  0  0  0  0
  1  8  1  0  0  0  0
  2  1  1  0  0  0  0
  3  4  1  0  0  0  0
  3  2  2  0  0  0  0
  4  5  2  0  0  0  0
  5  1  1  0  0  0  0
  5 16  1  0  0  0  0
  6  3  1  0  0  0  0
  7 12  1  0  0  0  0
  8  9  1  0  0  0  0
  8  7  2  0  0  0  0
  9 10  2  0  0  0  0
 10 11  1  0  0  0  0
 11 15  1  0  0  0  0
 12 11  2  0  0  0  0
 13  7  1  0  0  0  0
 14  9  1  0  0  0  0
 16 17  1  0  0  0  0
 17 19  1  0  0  0  0
 18 17  2  0  0  0  0
 18 20  1  0  0  0  0
 19 22  1  0  0  0  0
 19 23  1  0  0  0  0
 21 16  1  0  0  0  0
 24 30  1  0  0  0  0
 24  4  1  0  0  0  0
 25 24  2  0  0  0  0
 26 27  2  0  0  0  0
 26 25  1  0  0  0  0
 27 29  1  0  0  0  0
 28 27  1  0  0  0  0
 29 30  2  0  0  0  0
M  END
>  <minimizedAffinity>
-4.81885624

>  <minimizedRMSD>
0.87161237

$$$$
