
 OpenBabel03262519133D

 27 29  0  0  0  0  0  0  0  0999 V2000
   37.8130   27.6320   35.6090 C   0  0  0  0  0  0  0  0  0  0  0  0
   37.0900   27.4850   34.4270 C   0  0  0  0  0  0  0  0  0  0  0  0
   37.1060   26.2660   33.7460 C   0  0  0  0  0  0  0  0  0  0  0  0
   37.8480   25.2650   34.2940 N   0  0  0  0  0  0  0  0  0  0  0  0
   38.5440   25.4300   35.4480 C   0  0  0  0  0  0  0  0  0  0  0  0
   38.5190   26.6090   36.0920 N   0  0  0  0  0  0  0  0  0  0  0  0
   37.7620   28.5910   36.0850 H   0  0  0  0  0  0  0  0  0  0  0  0
   36.5730   26.0720   32.8230 H   0  0  0  0  0  0  0  0  0  0  0  0
   36.2910   28.5280   33.8290 C   0  0  0  0  0  0  0  0  0  0  0  0
   35.7000   29.5940   34.4800 C   0  0  0  0  0  0  0  0  0  0  0  0
   34.9890   30.4780   33.7480 C   0  0  0  0  0  0  0  0  0  0  0  0
   34.8910   30.2630   32.3680 C   0  0  0  0  0  0  0  0  0  0  0  0
   35.8680   28.7190   32.1110 S   0  0  0  0  0  0  0  0  0  0  0  0
   35.8020   29.7210   35.5510 H   0  0  0  0  0  0  0  0  0  0  0  0
   34.4650   31.3580   34.0890 H   0  0  0  0  0  0  0  0  0  0  0  0
   34.2600   30.9360   31.3080 C   0  0  0  0  0  0  0  0  0  0  0  0
   33.0330   31.0340   31.2610 O   0  0  0  0  0  0  0  0  0  0  0  0
   34.9890   31.5330   30.2450 N   0  0  0  0  0  0  0  0  0  0  0  0
   35.4440   30.7280   29.7550 H   0  0  0  0  0  0  0  0  0  0  0  0
   35.0570   32.5650   29.9970 H   0  0  0  0  0  0  0  0  0  0  0  0
   39.3360   24.3360   36.0190 C   0  0  0  0  0  0  0  0  0  0  0  0
   38.9030   23.7810   37.2290 C   0  0  0  0  0  0  0  0  0  0  0  0
   39.6430   22.7440   37.7810 C   0  0  0  0  0  0  0  0  0  0  0  0
   40.7650   22.3370   37.0850 C   0  0  0  0  0  0  0  0  0  0  0  0
   41.3290   21.5320   37.5250 H   0  0  0  0  0  0  0  0  0  0  0  0
   41.1950   22.8740   35.9010 C   0  0  0  0  0  0  0  0  0  0  0  0
   40.4410   23.8820   35.4020 N   0  0  0  0  0  0  0  0  0  0  0  0
  1  7  1  0  0  0  0
  1  6  1  0  0  0  0
  2  1  2  0  0  0  0
  3  4  2  0  0  0  0
  3  2  1  0  0  0  0
  4  5  1  0  0  0  0
  5 21  1  0  0  0  0
  5  6  2  0  0  0  0
  8  3  1  0  0  0  0
  9  2  1  0  0  0  0
  9 10  2  0  0  0  0
 10 14  1  0  0  0  0
 11 15  1  0  0  0  0
 11 10  1  0  0  0  0
 12 11  2  0  0  0  0
 13 12  1  0  0  0  0
 13  9  1  0  0  0  0
 16 12  1  0  0  0  0
 17 16  2  0  0  0  0
 18 16  1  0  0  0  0
 19 18  1  0  0  0  0
 20 18  1  0  0  0  0
 21 22  1  0  0  0  0
 22 23  2  0  0  0  0
 24 25  1  0  0  0  0
 24 23  1  0  0  0  0
 26 24  2  0  0  0  0
 27 26  1  0  0  0  0
 27 21  2  0  0  0  0
M  END
>  <minimizedAffinity>
-5.05536079

>  <minimizedRMSD>
4.07064724

$$$$
