
 OpenBabel03262514453D

 47 50  0  0  1  0  0  0  0  0999 V2000
   37.2900   26.1610   34.1720 C   0  0  0  0  0  0  0  0  0  0  0  0
   36.4340   25.6550   34.6790 H   0  0  0  0  0  0  0  0  0  0  0  0
   37.5130   25.4730   33.3130 H   0  0  0  0  0  0  0  0  0  0  0  0
   36.8430   27.3810   33.5860 N   0  0  0  0  0  0  0  0  0  0  0  0
   36.2330   28.2400   34.4330 C   0  0  0  0  0  0  0  0  0  0  0  0
   35.7590   29.4730   34.0160 C   0  0  0  0  0  0  0  0  0  0  0  0
   35.9250   29.8120   32.6880 C   0  0  0  0  0  0  0  0  0  0  0  0
   35.4320   31.0830   32.2880 N   0  0  0  0  0  0  0  0  0  0  0  0
   36.5340   28.9490   31.8520 N   0  0  0  0  0  0  0  0  0  0  0  0
   36.9680   27.7770   32.3140 C   0  0  0  0  0  0  0  0  0  0  0  0
   37.5290   26.9660   31.5520 O   0  0  0  0  0  0  0  0  0  0  0  0
   36.0560   28.0280   35.4970 H   0  0  0  0  0  0  0  0  0  0  0  0
   34.5950   31.2020   31.6870 H   0  0  0  0  0  0  0  0  0  0  0  0
   36.0690   31.8110   32.7140 H   0  0  0  0  0  0  0  0  0  0  0  0
   35.1040   30.3720   34.9790 C   0  0  0  0  0  0  0  0  0  0  0  0
   35.8340   31.2800   35.7200 C   0  0  0  0  0  0  0  0  0  0  0  0
   35.2200   32.1220   36.6280 C   0  0  0  0  0  0  0  0  0  0  0  0
   33.8680   32.0050   36.7460 C   0  0  0  0  0  0  0  0  0  0  0  0
   33.0930   31.1110   36.0250 C   0  0  0  0  0  0  0  0  0  0  0  0
   33.7340   30.2720   35.1170 C   0  0  0  0  0  0  0  0  0  0  0  0
   36.9130   31.3380   35.5920 H   0  0  0  0  0  0  0  0  0  0  0  0
   35.8130   32.8240   37.1970 H   0  0  0  0  0  0  0  0  0  0  0  0
   33.3740   32.6630   37.4580 H   0  0  0  0  0  0  0  0  0  0  0  0
   32.0410   31.1080   36.2010 H   0  0  0  0  0  0  0  0  0  0  0  0
   33.1560   29.5720   34.5480 H   0  0  0  0  0  0  0  0  0  0  0  0
   38.4880   26.2490   35.0790 C   0  0  2  0  0  0  0  0  0  0  0  0
   38.1440   23.0280   36.8630 C   0  0  0  0  0  0  0  0  0  0  0  0
   37.9580   23.3830   38.1750 C   0  0  0  0  0  0  0  0  0  0  0  0
   37.9490   24.7340   38.4350 C   0  0  0  0  0  0  0  0  0  0  0  0
   38.1190   25.6200   37.4250 N   0  0  0  0  0  0  0  0  0  0  0  0
   38.3010   25.2330   36.1400 C   0  0  0  0  0  0  0  0  0  0  0  0
   38.3140   23.8930   35.8540 N   0  0  0  0  0  0  0  0  0  0  0  0
   38.1740   22.0050   36.5120 H   0  0  0  0  0  0  0  0  0  0  0  0
   37.8060   25.0560   39.4480 H   0  0  0  0  0  0  0  0  0  0  0  0
   37.8070   22.3620   39.1330 N   0  0  0  0  0  0  0  0  0  0  0  0
   36.8500   21.9420   39.1330 H   0  0  0  0  0  0  0  0  0  0  0  0
   38.5850   22.0520   39.7860 H   0  0  0  0  0  0  0  0  0  0  0  0
   38.6180   27.6020   35.6840 C   0  0  0  0  0  0  0  0  0  0  0  0
   38.9830   28.3920   35.0330 H   0  0  0  0  0  0  0  0  0  0  0  0
   37.6050   27.9300   36.0190 H   0  0  0  0  0  0  0  0  0  0  0  0
   39.1600   27.5410   36.6830 H   0  0  0  0  0  0  0  0  0  0  0  0
   39.7160   25.8730   34.2480 C   0  0  0  0  0  0  0  0  0  0  0  0
   39.9940   24.8180   34.5790 H   0  0  0  0  0  0  0  0  0  0  0  0
   39.5120   25.7200   33.1850 H   0  0  0  0  0  0  0  0  0  0  0  0
   40.9210   26.7160   34.4940 C   0  0  0  0  0  0  0  0  0  0  0  0
   41.8420   27.2430   33.5000 C   0  0  0  0  0  0  0  0  0  0  0  0
   42.2530   26.0050   34.2530 C   0  0  0  0  0  0  0  0  0  0  0  0
  1  2  1  0  0  0  0
  3  1  1  0  0  0  0
  4  1  1  0  0  0  0
  4  5  1  0  0  0  0
  5 12  1  0  0  0  0
  6  5  2  0  0  0  0
  6 15  1  0  0  0  0
  7  6  1  0  0  0  0
  8  7  1  0  0  0  0
  8 14  1  0  0  0  0
  9 10  1  0  0  0  0
  9  7  2  0  0  0  0
 10  4  1  0  0  0  0
 11 10  2  0  0  0  0
 13  8  1  0  0  0  0
 15 20  2  0  0  0  0
 15 16  1  0  0  0  0
 16 17  2  0  0  0  0
 17 18  1  0  0  0  0
 17 22  1  0  0  0  0
 18 23  1  0  0  0  0
 19 24  1  0  0  0  0
 19 18  2  0  0  0  0
 20 19  1  0  0  0  0
 21 16  1  0  0  0  0
 25 20  1  0  0  0  0
 26  1  1  6  0  0  0
 26 38  1  0  0  0  0
 26 31  1  0  0  0  0
 27 28  1  0  0  0  0
 28 29  2  0  0  0  0
 28 35  1  0  0  0  0
 29 34  1  0  0  0  0
 30 29  1  0  0  0  0
 31 30  2  0  0  0  0
 32 31  1  0  0  0  0
 32 27  2  0  0  0  0
 33 27  1  0  0  0  0
 35 37  1  0  0  0  0
 36 35  1  0  0  0  0
 38 40  1  0  0  0  0
 38 41  1  0  0  0  0
 39 38  1  0  0  0  0
 42 45  1  0  0  0  0
 42 43  1  0  0  0  0
 42 26  1  0  0  0  0
 44 42  1  0  0  0  0
 46 47  1  0  0  0  0
 46 45  1  0  0  0  0
 47 45  1  0  0  0  0
M  END
>  <minimizedAffinity>
-6.59464359

>  <minimizedRMSD>
0.94264102

$$$$
