
 OpenBabel03262520003D

 32 35  0  0  1  0  0  0  0  0999 V2000
   37.7080   24.1890   32.7310 C   0  0  0  0  0  0  0  0  0  0  0  0
   37.5050   23.2630   31.7130 C   0  0  0  0  0  0  0  0  0  0  0  0
   36.5500   23.8470   30.9320 N   0  0  0  0  0  0  0  0  0  0  0  0
   36.2410   25.0210   31.4790 C   0  0  0  0  0  0  0  0  0  0  0  0
   36.9400   25.2540   32.5860 N   0  0  0  0  0  0  0  0  0  0  0  0
   38.0170   22.3180   31.6180 H   0  0  0  0  0  0  0  0  0  0  0  0
   35.4850   25.5670   30.9300 H   0  0  0  0  0  0  0  0  0  0  0  0
   38.6470   24.0070   33.8340 C   0  0  0  0  0  0  0  0  0  0  0  0
   38.1940   23.4390   35.0440 C   0  0  0  0  0  0  0  0  0  0  0  0
   39.1350   23.2780   36.0870 C   0  0  0  0  0  0  0  0  0  0  0  0
   40.4090   23.6850   35.8460 N   0  0  0  0  0  0  0  0  0  0  0  0
   40.8020   24.2240   34.6740 C   0  0  0  0  0  0  0  0  0  0  0  0
   39.9270   24.3880   33.6650 N   0  0  0  0  0  0  0  0  0  0  0  0
   37.1530   23.1610   35.0980 H   0  0  0  0  0  0  0  0  0  0  0  0
   38.7810   22.8470   36.9960 H   0  0  0  0  0  0  0  0  0  0  0  0
   41.8460   24.4970   34.6350 H   0  0  0  0  0  0  0  0  0  0  0  0
   36.8000   26.4360   33.3520 C   0  0  1  0  0  0  0  0  0  0  0  0
   37.8320   27.3870   33.6630 C   0  0  0  0  0  0  0  0  0  0  0  0
   36.7770   27.7010   32.5690 C   0  0  1  0  0  0  0  0  0  0  0  0
   35.9830   26.3260   34.1410 H   0  0  0  0  0  0  0  0  0  0  0  0
   37.7810   28.0300   34.5560 H   0  0  0  0  0  0  0  0  0  0  0  0
   38.8430   27.2330   33.3030 H   0  0  0  0  0  0  0  0  0  0  0  0
   37.5640   27.9990   31.3090 C   0  0  0  0  0  0  0  0  0  0  0  0
   36.6530   28.4750   30.2510 C   0  0  0  0  0  3  0  0  0  0  0  0
   37.7740   28.7680   28.8660 S   0  0  0  0  0  0  0  0  0  0  0  0
   39.2940   28.2120   29.9040 C   0  0  0  0  0  0  0  0  0  0  0  0
   40.3210   28.1850   29.5380 H   0  0  0  0  0  0  0  0  0  0  0  0
   38.8410   27.9470   30.9120 N   0  0  0  0  0  0  0  0  0  0  0  0
   35.8270   28.7890   33.0190 C   0  0  0  0  0  0  0  0  0  0  0  0
   34.5590   28.5470   32.5300 F   0  0  0  0  0  0  0  0  0  0  0  0
   35.6670   28.6700   34.4630 F   0  0  0  0  0  0  0  0  0  0  0  0
   36.2730   30.0330   32.7930 F   0  0  0  0  0  0  0  0  0  0  0  0
  1  8  1  0  0  0  0
  2  1  2  0  0  0  0
  3  4  2  0  0  0  0
  3  2  1  0  0  0  0
  4  5  1  0  0  0  0
  5  1  1  0  0  0  0
  5 17  1  0  0  0  0
  6  2  1  0  0  0  0
  7  4  1  0  0  0  0
  8  9  1  0  0  0  0
  9 14  1  0  0  0  0
  9 10  2  0  0  0  0
 10 15  1  0  0  0  0
 11 10  1  0  0  0  0
 12 11  2  0  0  0  0
 13  8  2  0  0  0  0
 13 12  1  0  0  0  0
 16 12  1  0  0  0  0
 17 18  1  0  0  0  0
 17 20  1  1  0  0  0
 18 21  1  0  0  0  0
 19 29  1  1  0  0  0
 19 17  1  0  0  0  0
 19 18  1  0  0  0  0
 22 18  1  0  0  0  0
 23 19  1  0  0  0  0
 24 23  2  0  0  0  0
 25 26  1  0  0  0  0
 25 24  1  0  0  0  0
 26 28  2  0  0  0  0
 27 26  1  0  0  0  0
 28 23  1  0  0  0  0
 29 31  1  0  0  0  0
 30 29  1  0  0  0  0
 32 29  1  0  0  0  0
M  END
>  <minimizedAffinity>
-4.64491987

>  <minimizedRMSD>
6.19782162

$$$$
