
 OpenBabel03262519223D

 26 29  0  0  0  0  0  0  0  0999 V2000
   37.7510   25.0240   33.6550 C   0  0  0  0  0  0  0  0  0  0  0  0
   37.8640   25.4120   34.9810 C   0  0  0  0  0  0  0  0  0  0  0  0
   37.5950   26.7400   35.3200 C   0  0  0  0  0  0  0  0  0  0  0  0
   37.2340   27.6220   34.3510 N   0  0  0  0  0  0  0  0  0  0  0  0
   37.1330   27.2220   33.0570 C   0  0  0  0  0  0  0  0  0  0  0  0
   37.3880   25.9590   32.7370 N   0  0  0  0  0  0  0  0  0  0  0  0
   37.6940   26.9910   36.3600 H   0  0  0  0  0  0  0  0  0  0  0  0
   36.8460   27.9280   32.2840 H   0  0  0  0  0  0  0  0  0  0  0  0
   38.2650   24.4980   35.9660 N   0  0  0  0  0  0  0  0  0  0  0  0
   37.4910   23.9610   36.9130 C   0  0  0  0  0  0  0  0  0  0  0  0
   38.1740   23.0930   37.6810 N   0  0  0  0  0  0  0  0  0  0  0  0
   39.4250   23.0750   37.2090 C   0  0  0  0  0  0  0  0  0  0  0  0
   40.5850   22.4010   37.5430 C   0  0  0  0  0  0  0  0  0  0  0  0
   41.7570   22.5450   36.9040 N   0  0  0  0  0  0  0  0  0  0  0  0
   41.7660   23.4120   35.8740 C   0  0  0  0  0  0  0  0  0  0  0  0
   40.6590   24.0660   35.5410 N   0  0  0  0  0  0  0  0  0  0  0  0
   39.4730   23.9530   36.1450 C   0  0  0  0  0  0  0  0  0  0  0  0
   36.4410   24.1520   37.1000 H   0  0  0  0  0  0  0  0  0  0  0  0
   40.4760   21.7210   38.3940 H   0  0  0  0  0  0  0  0  0  0  0  0
   42.6960   23.5510   35.3390 H   0  0  0  0  0  0  0  0  0  0  0  0
   37.9590   23.6280   33.2140 C   0  0  0  0  0  0  0  0  0  0  0  0
   39.0890   23.3210   32.3880 C   0  0  0  0  0  0  0  0  0  0  0  0
   38.8890   21.4780   32.1280 S   0  0  0  0  0  0  0  0  0  0  0  0
   37.3150   21.4730   33.1850 C   0  0  0  0  0  0  0  0  0  0  0  0
   36.6880   20.6130   33.4220 H   0  0  0  0  0  0  0  0  0  0  0  0
   37.2380   22.5730   33.4730 N   0  0  0  0  0  0  0  0  0  0  0  0
  1  2  1  0  0  0  0
  2  3  2  0  0  0  0
  2  9  1  0  0  0  0
  3  7  1  0  0  0  0
  4  3  1  0  0  0  0
  5  4  2  0  0  0  0
  6  5  1  0  0  0  0
  6  1  2  0  0  0  0
  8  5  1  0  0  0  0
  9 17  1  0  0  0  0
  9 10  1  0  0  0  0
 10 18  1  0  0  0  0
 10 11  2  0  0  0  0
 12 13  1  0  0  0  0
 12 11  1  0  0  0  0
 13 19  1  0  0  0  0
 14 13  2  0  0  0  0
 15 14  1  0  0  0  0
 16 15  2  0  0  0  0
 16 17  1  0  0  0  0
 17 12  2  0  0  0  0
 20 15  1  0  0  0  0
 21 26  1  0  0  0  0
 21  1  1  0  0  0  0
 22 21  2  0  0  0  0
 23 22  1  0  0  0  0
 23 24  1  0  0  0  0
 24 25  1  0  0  0  0
 24 26  2  0  0  0  0
M  END
>  <minimizedAffinity>
-4.61593914

>  <minimizedRMSD>
1.09818602

$$$$
