REMARK  Name = 
REMARK  4 active torsions:
REMARK  status: ('A' for Active; 'I' for Inactive)
REMARK    1  A    between atoms: C_1  and  C_6
REMARK    2  A    between atoms: N_5  and  C_12
REMARK    3  A    between atoms: C_14  and  C_15
REMARK    4  A    between atoms: C_14  and  C_27
REMARK                            x       y       z     vdW  Elec       q    Type
REMARK                         _______ _______ _______ _____ _____    ______ ____
ROOT
ATOM      1  C   UNL     1      37.868  23.695  33.502  0.00  0.00    +0.000 A 
ATOM      2  C   UNL     1      37.465  22.656  32.668  0.00  0.00    +0.000 A 
ATOM      3  N   UNL     1      37.485  21.563  33.485  0.00  0.00    +0.000 NA
ATOM      4  C   UNL     1      37.873  21.965  34.693  0.00  0.00    +0.000 A 
ATOM      5  N   UNL     1      38.114  23.272  34.729  0.00  0.00    +0.000 N 
ATOM      6  H   UNL     1      37.209  22.757  31.625  0.00  0.00    +0.000 HD
ATOM      7  H   UNL     1      37.922  21.164  35.419  0.00  0.00    +0.000 HD
ENDROOT
BRANCH   1   8
ATOM      8  C   UNL     1      38.012  25.084  33.075  0.00  0.00    +0.000 A 
ATOM      9  C   UNL     1      39.295  25.585  32.768  0.00  0.00    +0.000 A 
ATOM     10  C   UNL     1      39.392  26.934  32.357  0.00  0.00    +0.000 A 
ATOM     11  N   UNL     1      38.239  27.650  32.289  0.00  0.00    +0.000 NA
ATOM     12  C   UNL     1      37.031  27.133  32.592  0.00  0.00    +0.000 A 
ATOM     13  N   UNL     1      36.910  25.852  32.985  0.00  0.00    +0.000 NA
ATOM     14  H   UNL     1      40.126  24.904  32.866  0.00  0.00    +0.000 HD
ATOM     15  H   UNL     1      40.367  27.302  32.127  0.00  0.00    +0.000 HD
ATOM     16  H   UNL     1      36.209  27.826  32.489  0.00  0.00    +0.000 HD
ENDBRANCH   1   8
BRANCH   5  17
ATOM     17  C   UNL     1      38.535  23.947  35.899  0.00  0.00    +0.000 C 
ATOM     18  C   UNL     1      38.080  25.229  36.364  0.00  0.00    +0.000 C 
ATOM     19  C   UNL     1      37.567  23.924  37.029  0.00  0.00    +0.000 C 
ATOM     20  H   UNL     1      39.614  23.686  36.165  0.00  0.00    +0.000 HD
ATOM     21  H   UNL     1      38.701  25.867  37.013  0.00  0.00    +0.000 HD
ATOM     22  H   UNL     1      37.341  25.784  35.799  0.00  0.00    +0.000 HD
BRANCH  19  23
ATOM     23  C   UNL     1      36.056  23.974  36.926  0.00  0.00    +0.000 A 
ATOM     24  C   UNL     1      35.573  25.313  37.315  0.00  0.00    +0.000 A 
ATOM     25  S   UNL     1      33.785  25.158  37.124  0.00  0.00    +0.000 S 
ATOM     26  C   UNL     1      33.945  23.330  36.553  0.00  0.00    +0.000 A 
ATOM     27  H   UNL     1      33.106  22.687  36.281  0.00  0.00    +0.000 HD
ATOM     28  N   UNL     1      35.065  23.143  36.582  0.00  0.00    +0.000 NA
ENDBRANCH  19  23
BRANCH  19  29
ATOM     29  C   UNL     1      38.122  23.765  38.427  0.00  0.00    +0.000 C 
ATOM     30  F   UNL     1      37.513  22.702  39.064  0.00  0.00    +0.000 F 
ATOM     31  F   UNL     1      39.512  23.344  38.308  0.00  0.00    +0.000 F 
ATOM     32  F   UNL     1      38.134  24.899  39.143  0.00  0.00    +0.000 F 
ENDBRANCH  19  29
ENDBRANCH   5  17
TORSDOF 4
