
 OpenBabel03262519573D

 29 32  0  0  1  0  0  0  0  0999 V2000
   38.0770   23.7460   34.4990 C   0  0  0  0  0  0  0  0  0  0  0  0
   38.2410   24.9460   33.8090 C   0  0  0  0  0  0  0  0  0  0  0  0
   37.7960   24.6610   32.5500 N   0  0  0  0  0  0  0  0  0  0  0  0
   37.4090   23.3980   32.5290 C   0  0  0  0  0  0  0  0  0  0  0  0
   37.5680   22.7900   33.7240 N   0  0  0  0  0  0  0  0  0  0  0  0
   38.6400   25.8740   34.2260 H   0  0  0  0  0  0  0  0  0  0  0  0
   37.0140   22.9490   31.6190 H   0  0  0  0  0  0  0  0  0  0  0  0
   38.4150   23.5390   35.8980 C   0  0  0  0  0  0  0  0  0  0  0  0
   39.6360   22.9450   36.2540 C   0  0  0  0  0  0  0  0  0  0  0  0
   39.9270   22.7620   37.6180 C   0  0  0  0  0  0  0  0  0  0  0  0
   39.0030   23.1740   38.5150 N   0  0  0  0  0  0  0  0  0  0  0  0
   37.8390   23.7420   38.1420 C   0  0  0  0  0  0  0  0  0  0  0  0
   37.5250   23.9340   36.8450 N   0  0  0  0  0  0  0  0  0  0  0  0
   40.2780   22.6650   35.4290 H   0  0  0  0  0  0  0  0  0  0  0  0
   40.8630   22.3070   37.8490 H   0  0  0  0  0  0  0  0  0  0  0  0
   37.1920   24.0250   38.9450 H   0  0  0  0  0  0  0  0  0  0  0  0
   37.2310   21.4260   33.9870 C   0  0  1  0  0  0  0  0  0  0  0  0
   35.9480   21.0250   34.5780 C   0  0  0  0  0  0  0  0  0  0  0  0
   36.1020   20.9070   33.0860 C   0  0  2  0  0  0  0  0  0  0  0  0
   38.1220   20.7640   34.0860 H   0  0  0  0  0  0  0  0  0  0  0  0
   35.3260   21.8540   34.9910 H   0  0  0  0  0  0  0  0  0  0  0  0
   35.9080   20.1130   35.1980 H   0  0  0  0  0  0  0  0  0  0  0  0
   35.5370   21.6220   32.4940 H   0  0  0  0  0  0  0  0  0  0  0  0
   36.2850   19.5290   32.5110 C   0  0  0  0  0  0  0  0  0  0  0  0
   35.3260   18.5180   32.8670 C   0  0  0  0  0  3  0  0  0  0  0  0
   35.9990   17.0590   31.9190 S   0  0  0  0  0  0  0  0  0  0  0  0
   37.4380   18.0950   31.2310 C   0  0  0  0  0  0  0  0  0  0  0  0
   38.1960   17.7020   30.5670 H   0  0  0  0  0  0  0  0  0  0  0  0
   37.2680   19.1890   31.7040 N   0  0  0  0  0  0  0  0  0  0  0  0
  1  8  1  0  0  0  0
  2  6  1  0  0  0  0
  2  1  2  0  0  0  0
  3  2  1  0  0  0  0
  4  3  2  0  0  0  0
  4  5  1  0  0  0  0
  5 17  1  0  0  0  0
  5  1  1  0  0  0  0
  7  4  1  0  0  0  0
  8  9  2  0  0  0  0
  8 13  1  0  0  0  0
  9 10  1  0  0  0  0
 10 15  1  0  0  0  0
 10 11  2  0  0  0  0
 12 11  1  0  0  0  0
 12 16  1  0  0  0  0
 13 12  2  0  0  0  0
 14  9  1  0  0  0  0
 17 20  1  1  0  0  0
 17 18  1  0  0  0  0
 18 21  1  0  0  0  0
 18 22  1  0  0  0  0
 19 23  1  6  0  0  0
 19 17  1  0  0  0  0
 19 18  1  0  0  0  0
 24 25  2  0  0  0  0
 24 19  1  0  0  0  0
 26 25  1  0  0  0  0
 27 29  2  0  0  0  0
 27 26  1  0  0  0  0
 28 27  1  0  0  0  0
 29 24  1  0  0  0  0
M  END
>  <minimizedAffinity>
-4.55129242

>  <minimizedRMSD>
0.784280717

$$$$
