
 OpenBabel03262516333D

 39 41  0  0  0  0  0  0  0  0999 V2000
   37.8080   22.9610   33.9480 C   0  0  0  0  0  0  0  0  0  0  0  0
   38.1120   24.2910   33.8800 C   0  0  0  0  0  0  0  0  0  0  0  0
   38.8270   24.9410   34.8500 C   0  0  0  0  0  0  0  0  0  0  0  0
   39.2290   24.1960   35.9030 N   0  0  0  0  0  0  0  0  0  0  0  0
   38.9440   22.8810   35.9970 C   0  0  0  0  0  0  0  0  0  0  0  0
   38.2360   22.2360   35.0400 N   0  0  0  0  0  0  0  0  0  0  0  0
   37.7450   24.7960   33.0000 H   0  0  0  0  0  0  0  0  0  0  0  0
   39.2930   22.3250   36.8700 H   0  0  0  0  0  0  0  0  0  0  0  0
   37.0560   22.1850   32.9730 C   0  0  0  0  0  0  0  0  0  0  0  0
   36.2310   21.1300   33.3580 C   0  0  0  0  0  0  0  0  0  0  0  0
   35.6580   20.5920   32.2200 C   0  0  0  0  0  0  0  0  0  0  0  0
   36.1670   21.3530   31.2070 C   0  0  0  0  0  0  0  0  0  0  0  0
   36.9960   22.2930   31.6900 O   0  0  0  0  0  0  0  0  0  0  0  0
   36.0110   20.7220   34.3580 H   0  0  0  0  0  0  0  0  0  0  0  0
   35.9440   21.2340   30.1380 H   0  0  0  0  0  0  0  0  0  0  0  0
   34.7230   19.4760   32.0850 C   0  0  0  0  0  0  0  0  0  0  0  0
   34.5070   19.2850   31.0200 H   0  0  0  0  0  0  0  0  0  0  0  0
   33.7980   19.7130   32.6570 H   0  0  0  0  0  0  0  0  0  0  0  0
   35.2650   18.1620   32.6430 C   0  0  0  0  0  0  0  0  0  0  0  0
   36.1490   18.3870   33.2540 H   0  0  0  0  0  0  0  0  0  0  0  0
   34.4890   17.7790   33.3490 H   0  0  0  0  0  0  0  0  0  0  0  0
   35.5240   17.2210   31.5980 N   0  0  0  0  0  0  0  0  0  0  0  0
   35.4120   16.2420   31.9590 H   0  0  0  0  0  0  0  0  0  0  0  0
   34.8190   17.4370   30.8340 H   0  0  0  0  0  0  0  0  0  0  0  0
   39.1440   26.3660   34.7610 C   0  0  0  0  0  0  0  0  0  0  0  0
   40.6460   26.6110   34.7490 C   0  0  0  0  0  0  0  0  0  0  0  0
   41.0700   25.9940   35.5900 H   0  0  0  0  0  0  0  0  0  0  0  0
   41.1250   26.2220   33.8410 H   0  0  0  0  0  0  0  0  0  0  0  0
   40.8710   27.6600   34.9980 H   0  0  0  0  0  0  0  0  0  0  0  0
   38.5710   27.1360   35.9420 C   0  0  0  0  0  0  0  0  0  0  0  0
   39.0360   26.8050   36.8970 H   0  0  0  0  0  0  0  0  0  0  0  0
   38.7640   28.2100   35.7470 H   0  0  0  0  0  0  0  0  0  0  0  0
   37.4700   26.9890   35.9200 H   0  0  0  0  0  0  0  0  0  0  0  0
   38.5020   26.9200   33.5260 C   0  0  0  0  0  0  0  0  0  0  0  0
   37.7920   26.1370   33.1570 H   0  0  0  0  0  0  0  0  0  0  0  0
   37.8780   27.8080   33.7820 H   0  0  0  0  0  0  0  0  0  0  0  0
   39.4180   27.2600   32.4070 C   0  0  0  0  0  0  0  0  0  0  0  0
   38.6660   27.6800   31.1360 C   0  0  0  0  0  0  0  0  0  0  0  0
   39.5200   26.4640   31.1710 C   0  0  0  0  0  0  0  0  0  0  0  0
  1  6  1  0  0  0  0
  2  1  2  0  0  0  0
  2  3  1  0  0  0  0
  3  4  2  0  0  0  0
  4  5  1  0  0  0  0
  5  8  1  0  0  0  0
  6  5  2  0  0  0  0
  7  2  1  0  0  0  0
  9 10  2  0  0  0  0
  9  1  1  0  0  0  0
 10 14  1  0  0  0  0
 11 10  1  0  0  0  0
 12 13  1  0  0  0  0
 12 11  2  0  0  0  0
 13  9  1  0  0  0  0
 15 12  1  0  0  0  0
 16 11  1  0  0  0  0
 16 19  1  0  0  0  0
 16 18  1  0  0  0  0
 17 16  1  0  0  0  0
 19 20  1  0  0  0  0
 19 21  1  0  0  0  0
 22 23  1  0  0  0  0
 22 19  1  0  0  0  0
 24 22  1  0  0  0  0
 25  3  1  0  0  0  0
 25 30  1  0  0  0  0
 26 25  1  0  0  0  0
 26 29  1  0  0  0  0
 26 27  1  0  0  0  0
 28 26  1  0  0  0  0
 30 31  1  0  0  0  0
 32 30  1  0  0  0  0
 33 30  1  0  0  0  0
 34 36  1  0  0  0  0
 34 25  1  0  0  0  0
 35 34  1  0  0  0  0
 37 34  1  0  0  0  0
 38 39  1  0  0  0  0
 38 37  1  0  0  0  0
 39 37  1  0  0  0  0
M  END
>  <minimizedAffinity>
-4.91847229

>  <minimizedRMSD>
2.34494495

$$$$
