
 OpenBabel03262519573D

 29 32  0  0  1  0  0  0  0  0999 V2000
   38.1420   23.8510   34.5750 C   0  0  0  0  0  0  0  0  0  0  0  0
   38.3220   25.0670   33.9170 C   0  0  0  0  0  0  0  0  0  0  0  0
   37.9050   24.8130   32.6420 N   0  0  0  0  0  0  0  0  0  0  0  0
   37.5170   23.5510   32.5830 C   0  0  0  0  0  0  0  0  0  0  0  0
   37.6490   22.9150   33.7670 N   0  0  0  0  0  0  0  0  0  0  0  0
   38.7130   25.9840   34.3650 H   0  0  0  0  0  0  0  0  0  0  0  0
   37.1420   23.1240   31.6540 H   0  0  0  0  0  0  0  0  0  0  0  0
   38.4490   23.6110   35.9760 C   0  0  0  0  0  0  0  0  0  0  0  0
   39.6630   23.0100   36.3440 C   0  0  0  0  0  0  0  0  0  0  0  0
   39.9240   22.7940   37.7090 C   0  0  0  0  0  0  0  0  0  0  0  0
   38.9790   23.1840   38.5960 N   0  0  0  0  0  0  0  0  0  0  0  0
   37.8230   23.7590   38.2100 C   0  0  0  0  0  0  0  0  0  0  0  0
   37.5370   23.9820   36.9120 N   0  0  0  0  0  0  0  0  0  0  0  0
   40.3230   22.7510   35.5280 H   0  0  0  0  0  0  0  0  0  0  0  0
   40.8550   22.3360   37.9510 H   0  0  0  0  0  0  0  0  0  0  0  0
   37.1570   24.0210   39.0060 H   0  0  0  0  0  0  0  0  0  0  0  0
   37.3060   21.5460   33.9890 C   0  0  1  0  0  0  0  0  0  0  0  0
   36.1070   21.1390   34.7340 C   0  0  0  0  0  0  0  0  0  0  0  0
   36.0420   21.1160   33.2310 C   0  0  2  0  0  0  0  0  0  0  0  0
   38.1780   20.8550   33.9170 H   0  0  0  0  0  0  0  0  0  0  0  0
   35.5800   21.9530   35.2840 H   0  0  0  0  0  0  0  0  0  0  0  0
   36.1240   20.1890   35.2950 H   0  0  0  0  0  0  0  0  0  0  0  0
   35.4240   21.8840   32.7730 H   0  0  0  0  0  0  0  0  0  0  0  0
   36.0920   19.7760   32.5510 C   0  0  0  0  0  0  0  0  0  0  0  0
   36.9090   19.6480   31.3750 C   0  0  0  0  0  3  0  0  0  0  0  0
   36.6210   17.8550   30.9510 S   0  0  0  0  0  0  0  0  0  0  0  0
   35.4570   17.6290   32.4390 C   0  0  0  0  0  0  0  0  0  0  0  0
   34.9680   16.6950   32.6820 H   0  0  0  0  0  0  0  0  0  0  0  0
   35.4360   18.7120   32.9640 N   0  0  0  0  0  0  0  0  0  0  0  0
  1  8  1  0  0  0  0
  2  6  1  0  0  0  0
  2  1  2  0  0  0  0
  3  2  1  0  0  0  0
  4  3  2  0  0  0  0
  4  5  1  0  0  0  0
  5 17  1  0  0  0  0
  5  1  1  0  0  0  0
  7  4  1  0  0  0  0
  8  9  2  0  0  0  0
  8 13  1  0  0  0  0
  9 10  1  0  0  0  0
 10 15  1  0  0  0  0
 10 11  2  0  0  0  0
 12 11  1  0  0  0  0
 12 16  1  0  0  0  0
 13 12  2  0  0  0  0
 14  9  1  0  0  0  0
 17 20  1  6  0  0  0
 17 18  1  0  0  0  0
 18 21  1  0  0  0  0
 18 22  1  0  0  0  0
 19 23  1  6  0  0  0
 19 17  1  0  0  0  0
 19 18  1  0  0  0  0
 24 29  1  0  0  0  0
 24 19  1  0  0  0  0
 25 24  2  0  0  0  0
 26 25  1  0  0  0  0
 26 27  1  0  0  0  0
 27 28  1  0  0  0  0
 27 29  2  0  0  0  0
M  END
>  <minimizedAffinity>
-4.66954422

>  <minimizedRMSD>
0.861098707

$$$$
