REMARK  Name = 
REMARK  3 active torsions:
REMARK  status: ('A' for Active; 'I' for Inactive)
REMARK    1  A    between atoms: C_1  and  C_6
REMARK    2  A    between atoms: N_5  and  C_12
REMARK    3  A    between atoms: C_14  and  C_24
REMARK                            x       y       z     vdW  Elec       q    Type
REMARK                         _______ _______ _______ _____ _____    ______ ____
ROOT
ATOM      1  C   UNL     1      38.029  23.473  34.621  0.00  0.00    +0.000 A 
ATOM      2  C   UNL     1      38.261  24.571  33.794  0.00  0.00    +0.000 A 
ATOM      3  N   UNL     1      37.765  24.178  32.584  0.00  0.00    +0.000 NA
ATOM      4  C   UNL     1      37.288  22.953  32.716  0.00  0.00    +0.000 A 
ATOM      5  N   UNL     1      37.433  22.475  33.971  0.00  0.00    +0.000 N 
ATOM      6  H   UNL     1      38.736  25.508  34.094  0.00  0.00    +0.000 HD
ATOM      7  H   UNL     1      36.839  22.433  31.871  0.00  0.00    +0.000 HD
ENDROOT
BRANCH   1   8
ATOM      8  C   UNL     1      38.387  23.403  36.029  0.00  0.00    +0.000 A 
ATOM      9  C   UNL     1      39.593  22.804  36.426  0.00  0.00    +0.000 A 
ATOM     10  C   UNL     1      39.904  22.756  37.797  0.00  0.00    +0.000 A 
ATOM     11  N   UNL     1      39.013  23.295  38.660  0.00  0.00    +0.000 NA
ATOM     12  C   UNL     1      37.863  23.863  38.247  0.00  0.00    +0.000 A 
ATOM     13  N   UNL     1      37.530  23.928  36.942  0.00  0.00    +0.000 NA
ATOM     14  H   UNL     1      40.208  22.415  35.626  0.00  0.00    +0.000 HD
ATOM     15  H   UNL     1      40.828  22.294  38.061  0.00  0.00    +0.000 HD
ATOM     16  H   UNL     1      37.242  24.253  39.026  0.00  0.00    +0.000 HD
ENDBRANCH   1   8
BRANCH   5  17
ATOM     17  C   UNL     1      37.007  21.179  34.395  0.00  0.00    +0.000 C 
ATOM     18  C   UNL     1      35.832  20.971  35.251  0.00  0.00    +0.000 C 
ATOM     19  C   UNL     1      35.669  20.757  33.771  0.00  0.00    +0.000 C 
ATOM     20  H   UNL     1      37.820  20.417  34.370  0.00  0.00    +0.000 HD
ATOM     21  H   UNL     1      35.401  21.890  35.713  0.00  0.00    +0.000 HD
ATOM     22  H   UNL     1      35.816  20.104  35.934  0.00  0.00    +0.000 HD
ATOM     23  H   UNL     1      35.080  21.505  33.247  0.00  0.00    +0.000 HD
BRANCH  19  24
ATOM     24  C   UNL     1      35.579  19.339  33.277  0.00  0.00    +0.000 A 
ATOM     25  C   UNL     1      35.395  18.297  34.251  0.00  0.00    +0.000 A 
ATOM     26  S   UNL     1      35.353  16.797  33.143  0.00  0.00    +0.000 S 
ATOM     27  C   UNL     1      35.591  17.865  31.588  0.00  0.00    +0.000 A 
ATOM     28  H   UNL     1      35.643  17.463  30.585  0.00  0.00    +0.000 HD
ATOM     29  N   UNL     1      35.659  18.991  32.009  0.00  0.00    +0.000 NA
ENDBRANCH  19  24
ENDBRANCH   5  17
TORSDOF 3
