
 OpenBabel03262513053D

 28 30  0  0  1  0  0  0  0  0999 V2000
   39.8980   23.5740   35.9320 C   0  0  1  0  0  0  0  0  0  0  0  0
   41.3910   23.5990   35.8940 C   0  0  0  0  0  0  0  0  0  0  0  0
   41.8430   22.6490   37.0020 C   0  0  1  0  0  0  0  0  0  0  0  0
   40.5830   21.9720   37.4820 C   0  0  0  0  0  0  0  0  0  0  0  0
   39.6280   23.1600   37.3820 C   0  0  0  0  0  0  0  0  0  0  0  0
   39.4430   22.7850   35.2910 H   0  0  0  0  0  0  0  0  0  0  0  0
   41.7310   23.1620   34.9330 H   0  0  0  0  0  0  0  0  0  0  0  0
   41.8240   24.6100   36.0520 H   0  0  0  0  0  0  0  0  0  0  0  0
   42.1790   23.2900   37.8350 H   0  0  0  0  0  0  0  0  0  0  0  0
   40.1880   21.2240   36.7690 H   0  0  0  0  0  0  0  0  0  0  0  0
   40.6560   21.5720   38.4910 H   0  0  0  0  0  0  0  0  0  0  0  0
   38.5840   22.8730   37.5340 H   0  0  0  0  0  0  0  0  0  0  0  0
   40.0190   23.9310   38.0450 H   0  0  0  0  0  0  0  0  0  0  0  0
   37.8870   25.0960   35.7720 C   0  0  0  0  0  0  0  0  0  0  0  0
   39.2460   24.8420   35.5820 C   0  0  0  0  0  0  0  0  0  0  0  0
   40.0460   25.8640   35.0050 C   0  0  0  0  0  0  0  0  0  0  0  0
   39.4640   27.0340   34.6660 N   0  0  0  0  0  0  0  0  0  0  0  0
   38.1360   27.2490   34.8650 C   0  0  0  0  0  0  0  0  0  0  0  0
   37.3840   26.2810   35.4110 N   0  0  0  0  0  0  0  0  0  0  0  0
   37.3770   24.2540   36.2150 H   0  0  0  0  0  0  0  0  0  0  0  0
   41.0940   25.8320   34.7860 H   0  0  0  0  0  0  0  0  0  0  0  0
   37.7150   28.1860   34.5850 H   0  0  0  0  0  0  0  0  0  0  0  0
   42.8580   21.6890   36.5120 C   0  0  0  0  0  0  0  0  0  0  0  0
   43.8870   22.0680   35.5200 C   0  0  0  0  0  0  0  0  0  0  0  0
   44.7860   20.5260   35.3380 S   0  0  0  0  0  0  0  0  0  0  0  0
   43.7020   19.6170   36.5700 C   0  0  0  0  0  0  0  0  0  0  0  0
   43.8360   18.5730   36.8420 H   0  0  0  0  0  0  0  0  0  0  0  0
   42.8860   20.4310   36.9490 N   0  0  0  0  0  0  0  0  0  0  0  0
  1  6  1  6  0  0  0
  1  5  1  0  0  0  0
  2  1  1  0  0  0  0
  2  8  1  0  0  0  0
  2  3  1  0  0  0  0
  3  4  1  0  0  0  0
  3  9  1  1  0  0  0
  4 11  1  0  0  0  0
  5  4  1  0  0  0  0
  5 12  1  0  0  0  0
  5 13  1  0  0  0  0
  7  2  1  0  0  0  0
 10  4  1  0  0  0  0
 14 20  1  0  0  0  0
 15 14  1  0  0  0  0
 15  1  1  0  0  0  0
 16 15  2  0  0  0  0
 17 18  2  0  0  0  0
 17 16  1  0  0  0  0
 18 19  1  0  0  0  0
 19 14  2  0  0  0  0
 21 16  1  0  0  0  0
 22 18  1  0  0  0  0
 23 28  1  0  0  0  0
 23  3  1  0  0  0  0
 24 23  2  0  0  0  0
 25 24  1  0  0  0  0
 25 26  1  0  0  0  0
 26 27  1  0  0  0  0
 26 28  2  0  0  0  0
M  END
>  <minimizedAffinity>
-3.85949802

>  <minimizedRMSD>
0.552907884

$$$$
