
 OpenBabel03262519573D

 29 32  0  0  1  0  0  0  0  0999 V2000
   38.0780   23.7450   34.4970 C   0  0  0  0  0  0  0  0  0  0  0  0
   38.2420   24.9450   33.8070 C   0  0  0  0  0  0  0  0  0  0  0  0
   37.7980   24.6600   32.5480 N   0  0  0  0  0  0  0  0  0  0  0  0
   37.4100   23.3970   32.5270 C   0  0  0  0  0  0  0  0  0  0  0  0
   37.5680   22.7890   33.7230 N   0  0  0  0  0  0  0  0  0  0  0  0
   38.6420   25.8730   34.2240 H   0  0  0  0  0  0  0  0  0  0  0  0
   37.0150   22.9470   31.6170 H   0  0  0  0  0  0  0  0  0  0  0  0
   38.4160   23.5390   35.8970 C   0  0  0  0  0  0  0  0  0  0  0  0
   39.6370   22.9440   36.2520 C   0  0  0  0  0  0  0  0  0  0  0  0
   39.9280   22.7620   37.6160 C   0  0  0  0  0  0  0  0  0  0  0  0
   39.0030   23.1750   38.5140 N   0  0  0  0  0  0  0  0  0  0  0  0
   37.8400   23.7420   38.1400 C   0  0  0  0  0  0  0  0  0  0  0  0
   37.5250   23.9330   36.8430 N   0  0  0  0  0  0  0  0  0  0  0  0
   40.2790   22.6640   35.4280 H   0  0  0  0  0  0  0  0  0  0  0  0
   40.8640   22.3080   37.8480 H   0  0  0  0  0  0  0  0  0  0  0  0
   37.1920   24.0250   38.9440 H   0  0  0  0  0  0  0  0  0  0  0  0
   37.2320   21.4260   33.9860 C   0  0  1  0  0  0  0  0  0  0  0  0
   35.9490   21.0250   34.5770 C   0  0  0  0  0  0  0  0  0  0  0  0
   36.1020   20.9060   33.0860 C   0  0  2  0  0  0  0  0  0  0  0  0
   38.1220   20.7620   34.0850 H   0  0  0  0  0  0  0  0  0  0  0  0
   35.3270   21.8530   34.9900 H   0  0  0  0  0  0  0  0  0  0  0  0
   35.9090   20.1130   35.1980 H   0  0  0  0  0  0  0  0  0  0  0  0
   35.5370   21.6210   32.4940 H   0  0  0  0  0  0  0  0  0  0  0  0
   36.2840   19.5280   32.5110 C   0  0  0  0  0  0  0  0  0  0  0  0
   35.3250   18.5170   32.8660 C   0  0  0  0  0  3  0  0  0  0  0  0
   35.9970   17.0580   31.9200 S   0  0  0  0  0  0  0  0  0  0  0  0
   37.4370   18.0930   31.2320 C   0  0  0  0  0  0  0  0  0  0  0  0
   38.1950   17.7000   30.5680 H   0  0  0  0  0  0  0  0  0  0  0  0
   37.2680   19.1870   31.7030 N   0  0  0  0  0  0  0  0  0  0  0  0
  1  8  1  0  0  0  0
  2  6  1  0  0  0  0
  2  1  2  0  0  0  0
  3  2  1  0  0  0  0
  4  3  2  0  0  0  0
  4  5  1  0  0  0  0
  5 17  1  0  0  0  0
  5  1  1  0  0  0  0
  7  4  1  0  0  0  0
  8  9  2  0  0  0  0
  8 13  1  0  0  0  0
  9 10  1  0  0  0  0
 10 15  1  0  0  0  0
 10 11  2  0  0  0  0
 12 11  1  0  0  0  0
 12 16  1  0  0  0  0
 13 12  2  0  0  0  0
 14  9  1  0  0  0  0
 17 20  1  1  0  0  0
 17 18  1  0  0  0  0
 18 21  1  0  0  0  0
 18 22  1  0  0  0  0
 19 23  1  6  0  0  0
 19 17  1  0  0  0  0
 19 18  1  0  0  0  0
 24 25  2  0  0  0  0
 24 19  1  0  0  0  0
 26 25  1  0  0  0  0
 27 29  2  0  0  0  0
 27 26  1  0  0  0  0
 28 27  1  0  0  0  0
 29 24  1  0  0  0  0
M  END
>  <minimizedAffinity>
-4.55459309

>  <minimizedRMSD>
0.76639986

$$$$
