
 OpenBabel03262519153D

 32 35  0  0  0  0  0  0  0  0999 V2000
   38.0920   24.6010   35.5230 C   0  0  0  0  0  0  0  0  0  0  0  0
   38.5050   25.7320   34.7890 C   0  0  0  0  0  0  0  0  0  0  0  0
   39.8570   25.9090   34.4890 C   0  0  0  0  0  0  0  0  0  0  0  0
   40.7020   24.9430   34.9460 N   0  0  0  0  0  0  0  0  0  0  0  0
   40.2770   23.8550   35.6560 C   0  0  0  0  0  0  0  0  0  0  0  0
   38.9770   23.7100   35.9280 N   0  0  0  0  0  0  0  0  0  0  0  0
   37.0210   24.5410   35.7120 H   0  0  0  0  0  0  0  0  0  0  0  0
   40.2390   26.7480   33.9340 H   0  0  0  0  0  0  0  0  0  0  0  0
   37.6190   26.7690   34.3020 C   0  0  0  0  0  0  0  0  0  0  0  0
   37.1140   27.8040   35.0770 C   0  0  0  0  0  0  0  0  0  0  0  0
   36.2930   28.6880   34.4480 C   0  0  0  0  0  0  0  0  0  0  0  0
   36.0160   28.5060   33.1010 C   0  0  0  0  0  0  0  0  0  0  0  0
   36.9720   26.9850   32.6730 S   0  0  0  0  0  0  0  0  0  0  0  0
   37.3460   27.9250   36.1270 H   0  0  0  0  0  0  0  0  0  0  0  0
   35.8050   29.5530   34.8730 H   0  0  0  0  0  0  0  0  0  0  0  0
   35.2380   29.1840   32.1370 C   0  0  0  0  0  0  0  0  0  0  0  0
   35.6860   29.3970   31.0040 O   0  0  0  0  0  0  0  0  0  0  0  0
   33.9010   29.6420   32.4620 N   0  0  0  0  0  0  0  0  0  0  0  0
   33.1110   28.9730   32.5950 H   0  0  0  0  0  0  0  0  0  0  0  0
   33.9630   30.6720   32.5120 H   0  0  0  0  0  0  0  0  0  0  0  0
   41.2920   22.8830   36.0890 C   0  0  0  0  0  0  0  0  0  0  0  0
   40.8080   21.8430   36.8610 C   0  0  0  0  0  0  0  0  0  0  0  0
   42.3880   20.8590   37.1990 S   0  0  0  0  0  0  0  0  0  0  0  0
   43.3820   22.1150   36.1910 C   0  0  0  0  0  0  0  0  0  0  0  0
   42.5840   22.8310   35.8760 N   0  0  0  0  0  0  0  0  0  0  0  0
   39.8920   21.4600   37.2850 H   0  0  0  0  0  0  0  0  0  0  0  0
   44.8120   21.8640   36.0800 C   0  0  0  0  0  0  0  0  0  0  0  0
   45.4990   20.6840   35.8960 C   0  0  0  0  0  0  0  0  0  0  0  0
   46.8490   21.0470   35.8660 C   0  0  0  0  0  0  0  0  0  0  0  0
   46.8890   22.4290   36.0360 C   0  0  0  0  0  0  0  0  0  0  0  0
   47.7940   23.0380   36.0600 H   0  0  0  0  0  0  0  0  0  0  0  0
   45.6430   22.8510   36.1560 O   0  0  0  0  0  0  0  0  0  0  0  0
  1  7  1  0  0  0  0
  1  6  1  0  0  0  0
  2  1  2  0  0  0  0
  3  2  1  0  0  0  0
  3  4  2  0  0  0  0
  4  5  1  0  0  0  0
  5  6  2  0  0  0  0
  5 21  1  0  0  0  0
  8  3  1  0  0  0  0
  9  2  1  0  0  0  0
  9 10  2  0  0  0  0
 10 14  1  0  0  0  0
 11 15  1  0  0  0  0
 11 10  1  0  0  0  0
 12 11  2  0  0  0  0
 13 12  1  0  0  0  0
 13  9  1  0  0  0  0
 16 18  1  0  0  0  0
 16 12  1  0  0  0  0
 17 16  2  0  0  0  0
 18 20  1  0  0  0  0
 18 19  1  0  0  0  0
 21 22  2  0  0  0  0
 22 23  1  0  0  0  0
 22 26  1  0  0  0  0
 24 23  1  0  0  0  0
 25 21  1  0  0  0  0
 25 24  2  0  0  0  0
 27 32  1  0  0  0  0
 27 24  1  0  0  0  0
 28 27  2  0  0  0  0
 29 28  1  0  0  0  0
 29 30  2  0  0  0  0
 30 31  1  0  0  0  0
 30 32  1  0  0  0  0
M  END
>  <minimizedAffinity>
-4.50425243

>  <minimizedRMSD>
2.91282725

$$$$
