REMARK  Name = 
REMARK  3 active torsions:
REMARK  status: ('A' for Active; 'I' for Inactive)
REMARK    1  A    between atoms: C_1  and  C_6
REMARK    2  A    between atoms: N_5  and  C_12
REMARK    3  A    between atoms: C_14  and  C_24
REMARK                            x       y       z     vdW  Elec       q    Type
REMARK                         _______ _______ _______ _____ _____    ______ ____
ROOT
ATOM      1  C   UNL     1      38.029  23.465  34.621  0.00  0.00    +0.000 A 
ATOM      2  C   UNL     1      38.266  24.568  33.802  0.00  0.00    +0.000 A 
ATOM      3  N   UNL     1      37.763  24.174  32.587  0.00  0.00    +0.000 NA
ATOM      4  C   UNL     1      37.284  22.954  32.717  0.00  0.00    +0.000 A 
ATOM      5  N   UNL     1      37.432  22.481  33.967  0.00  0.00    +0.000 N 
ATOM      6  H   UNL     1      38.730  25.507  34.045  0.00  0.00    +0.000 HD
ATOM      7  H   UNL     1      36.822  22.404  31.887  0.00  0.00    +0.000 HD
ENDROOT
BRANCH   1   8
ATOM      8  C   UNL     1      38.390  23.398  36.025  0.00  0.00    +0.000 A 
ATOM      9  C   UNL     1      39.583  22.810  36.429  0.00  0.00    +0.000 A 
ATOM     10  C   UNL     1      39.905  22.760  37.803  0.00  0.00    +0.000 A 
ATOM     11  N   UNL     1      39.020  23.295  38.653  0.00  0.00    +0.000 NA
ATOM     12  C   UNL     1      37.857  23.868  38.247  0.00  0.00    +0.000 A 
ATOM     13  N   UNL     1      37.533  23.924  36.939  0.00  0.00    +0.000 NA
ATOM     14  H   UNL     1      40.262  22.395  35.727  0.00  0.00    +0.000 HD
ATOM     15  H   UNL     1      40.816  22.316  38.172  0.00  0.00    +0.000 HD
ATOM     16  H   UNL     1      37.124  24.308  38.909  0.00  0.00    +0.000 HD
ENDBRANCH   1   8
BRANCH   5  17
ATOM     17  C   UNL     1      36.996  21.167  34.393  0.00  0.00    +0.000 C 
ATOM     18  C   UNL     1      35.847  20.967  35.259  0.00  0.00    +0.000 C 
ATOM     19  C   UNL     1      35.669  20.773  33.760  0.00  0.00    +0.000 C 
ATOM     20  H   UNL     1      37.780  20.405  34.211  0.00  0.00    +0.000 HD
ATOM     21  H   UNL     1      35.870  20.097  35.934  0.00  0.00    +0.000 HD
ATOM     22  H   UNL     1      35.378  21.858  35.710  0.00  0.00    +0.000 HD
ATOM     23  H   UNL     1      35.076  21.526  33.208  0.00  0.00    +0.000 HD
BRANCH  19  24
ATOM     24  C   UNL     1      35.465  19.344  33.395  0.00  0.00    +0.000 A 
ATOM     25  C   UNL     1      34.304  18.735  32.904  0.00  0.00    +0.000 A 
ATOM     26  C   UNL     1      34.626  17.396  32.722  0.00  0.00    +0.000 A 
ATOM     27  C   UNL     1      35.944  17.264  33.106  0.00  0.00    +0.000 A 
ATOM     28  H   UNL     1      36.522  16.335  33.090  0.00  0.00    +0.000 HD
ATOM     29  O   UNL     1      36.401  18.408  33.490  0.00  0.00    +0.000 OA
ENDBRANCH  19  24
ENDBRANCH   5  17
TORSDOF 3
