
 OpenBabel03262519563D

 29 32  0  0  1  0  0  0  0  0999 V2000
   38.3880   23.4610   35.5670 C   0  0  0  0  0  0  0  0  0  0  0  0
   38.7670   22.7230   36.6870 C   0  0  0  0  0  0  0  0  0  0  0  0
   38.5820   23.6030   37.7240 N   0  0  0  0  0  0  0  0  0  0  0  0
   38.1360   24.7370   37.2250 C   0  0  0  0  0  0  0  0  0  0  0  0
   38.0030   24.6860   35.8870 N   0  0  0  0  0  0  0  0  0  0  0  0
   39.1210   21.7090   36.7440 H   0  0  0  0  0  0  0  0  0  0  0  0
   37.9070   25.6120   37.8470 H   0  0  0  0  0  0  0  0  0  0  0  0
   38.4090   22.9520   34.2080 C   0  0  0  0  0  0  0  0  0  0  0  0
   39.4870   23.2040   33.3670 C   0  0  0  0  0  0  0  0  0  0  0  0
   39.4760   22.6950   32.0500 C   0  0  0  0  0  0  0  0  0  0  0  0
   38.4030   21.9840   31.6830 N   0  0  0  0  0  0  0  0  0  0  0  0
   37.3560   21.7430   32.5130 C   0  0  0  0  0  0  0  0  0  0  0  0
   37.3480   22.2220   33.7740 N   0  0  0  0  0  0  0  0  0  0  0  0
   40.3220   23.7720   33.6910 H   0  0  0  0  0  0  0  0  0  0  0  0
   40.2850   22.8600   31.3550 H   0  0  0  0  0  0  0  0  0  0  0  0
   36.4770   21.1730   32.2460 H   0  0  0  0  0  0  0  0  0  0  0  0
   37.5330   25.7910   35.0770 C   0  0  1  0  0  0  0  0  0  0  0  0
   37.7170   27.1790   35.4650 C   0  0  0  0  0  0  0  0  0  0  0  0
   38.6820   26.5730   34.4560 C   0  0  2  0  0  0  0  0  0  0  0  0
   36.8090   25.4480   34.3110 H   0  0  0  0  0  0  0  0  0  0  0  0
   36.9500   27.8990   35.1390 H   0  0  0  0  0  0  0  0  0  0  0  0
   38.1090   27.3860   36.4750 H   0  0  0  0  0  0  0  0  0  0  0  0
   39.7210   26.3820   34.7850 H   0  0  0  0  0  0  0  0  0  0  0  0
   38.4920   27.1280   33.0880 C   0  0  0  0  0  0  0  0  0  0  0  0
   39.3110   26.9570   31.9650 C   0  0  0  0  0  3  0  0  0  0  0  0
   38.7020   27.6710   30.9410 C   0  0  0  0  0  3  0  0  0  0  0  0
   37.5660   28.2300   31.4860 C   0  0  0  0  0  0  0  0  0  0  0  0
   36.8460   28.8610   30.9530 H   0  0  0  0  0  0  0  0  0  0  0  0
   37.4710   27.8970   32.7290 O   0  0  0  0  0  0  0  0  0  0  0  0
  1  5  1  0  0  0  0
  1  2  2  0  0  0  0
  2  6  1  0  0  0  0
  2  3  1  0  0  0  0
  4  3  2  0  0  0  0
  4  7  1  0  0  0  0
  5  4  1  0  0  0  0
  8  1  1  0  0  0  0
  9 14  1  0  0  0  0
  9  8  2  0  0  0  0
 10  9  1  0  0  0  0
 11 10  2  0  0  0  0
 11 12  1  0  0  0  0
 12 13  2  0  0  0  0
 13  8  1  0  0  0  0
 15 10  1  0  0  0  0
 16 12  1  0  0  0  0
 17 20  1  6  0  0  0
 17 18  1  0  0  0  0
 17  5  1  0  0  0  0
 18 22  1  0  0  0  0
 19 23  1  1  0  0  0
 19 17  1  0  0  0  0
 19 18  1  0  0  0  0
 21 18  1  0  0  0  0
 24 19  1  0  0  0  0
 25 24  2  0  0  0  0
 26 27  2  0  0  0  0
 26 25  1  0  0  0  0
 27 29  1  0  0  0  0
 28 27  1  0  0  0  0
 29 24  1  0  0  0  0
M  END
>  <minimizedAffinity>
-4.06190634

>  <minimizedRMSD>
6.62561417

$$$$
