
 OpenBabel03262519513D

 24 25  0  0  0  0  0  0  0  0999 V2000
   40.1160   23.3410   36.0940 C   0  0  0  0  0  0  0  0  0  0  0  0
   39.1040   24.2260   36.5460 C   0  0  0  0  0  0  0  0  0  0  0  0
   39.1250   25.3350   35.7780 C   0  0  0  0  0  0  0  0  0  0  0  0
   40.0040   25.5440   34.7300 N   0  0  0  0  0  0  0  0  0  0  0  0
   40.9220   24.6440   34.3850 C   0  0  0  0  0  0  0  0  0  0  0  0
   40.9730   23.5360   35.0770 N   0  0  0  0  0  0  0  0  0  0  0  0
   40.2970   22.3500   36.5750 H   0  0  0  0  0  0  0  0  0  0  0  0
   41.5320   24.9200   33.5680 H   0  0  0  0  0  0  0  0  0  0  0  0
   38.3240   23.7790   37.6470 C   0  0  0  0  0  0  0  0  0  0  0  0
   38.0770   24.8210   38.5810 F   0  0  0  0  0  0  0  0  0  0  0  0
   38.8190   22.9820   38.5950 F   0  0  0  0  0  0  0  0  0  0  0  0
   36.9230   23.6390   37.4250 F   0  0  0  0  0  0  0  0  0  0  0  0
   38.1350   26.2980   36.1250 C   0  0  0  0  0  0  0  0  0  0  0  0
   37.1380   25.7720   35.9730 H   0  0  0  0  0  0  0  0  0  0  0  0
   38.0590   26.5740   37.2020 H   0  0  0  0  0  0  0  0  0  0  0  0
   38.1030   27.4790   35.3120 C   0  0  0  0  0  0  0  0  0  0  0  0
   37.9630   28.4100   35.9410 H   0  0  0  0  0  0  0  0  0  0  0  0
   39.0920   27.6920   34.8020 H   0  0  0  0  0  0  0  0  0  0  0  0
   37.0010   27.5560   34.2870 C   0  0  0  0  0  0  0  0  0  0  0  0
   36.0810   28.7080   34.4130 C   0  0  0  0  0  0  0  0  0  0  0  0
   35.6160   29.2770   33.1010 C   0  0  0  0  0  0  0  0  0  0  0  0
   35.4950   28.3210   31.9730 C   0  0  0  0  0  0  0  0  0  0  0  0
   36.3220   27.0910   32.0290 C   0  0  0  0  0  0  0  0  0  0  0  0
   37.5400   27.3680   32.8870 C   0  0  0  0  0  0  0  0  0  0  0  0
  1  2  1  0  0  0  0
  1  7  1  0  0  0  0
  2  9  1  0  0  0  0
  3 13  1  0  0  0  0
  3  2  2  0  0  0  0
  4  3  1  0  0  0  0
  5  4  2  0  0  0  0
  5  6  1  0  0  0  0
  6  1  2  0  0  0  0
  8  5  1  0  0  0  0
  9 10  1  0  0  0  0
  9 11  1  0  0  0  0
 12  9  1  0  0  0  0
 13 15  1  0  0  0  0
 14 13  1  0  0  0  0
 16 17  1  0  0  0  0
 16 13  1  0  0  0  0
 18 16  1  0  0  0  0
 19 20  1  0  0  0  0
 19 16  1  0  0  0  0
 21 20  1  0  0  0  0
 22 23  1  0  0  0  0
 22 21  1  0  0  0  0
 23 24  1  0  0  0  0
 24 19  1  0  0  0  0
M  END
>  <minimizedAffinity>
-4.87386465

>  <minimizedRMSD>
5.7780323

$$$$
