
 OpenBabel03262519083D

 34 37  0  0  1  0  0  0  0  0999 V2000
   37.1170   26.8870   34.0650 C   0  0  0  0  0  0  0  0  0  0  0  0
   36.4400   26.5240   34.8720 H   0  0  0  0  0  0  0  0  0  0  0  0
   37.0010   26.1350   33.2330 H   0  0  0  0  0  0  0  0  0  0  0  0
   36.5340   28.1500   33.5640 C   0  0  0  0  0  0  0  0  0  0  0  0
   36.3950   28.6130   32.2720 C   0  0  0  0  0  0  0  0  0  0  0  0
   35.8260   29.8250   31.9530 C   0  0  0  0  0  0  0  0  0  0  0  0
   35.3780   30.6050   32.9850 C   0  0  0  0  0  0  0  0  0  0  0  0
   35.5290   30.1210   34.2560 C   0  0  0  0  0  0  0  0  0  0  0  0
   36.0840   28.9360   34.5610 N   0  0  0  0  0  0  0  0  0  0  0  0
   36.7840   27.9160   31.5370 H   0  0  0  0  0  0  0  0  0  0  0  0
   35.7560   30.1090   30.9320 H   0  0  0  0  0  0  0  0  0  0  0  0
   34.9320   31.5520   32.7530 H   0  0  0  0  0  0  0  0  0  0  0  0
   35.0330   30.9880   35.3520 C   0  0  0  0  0  0  0  0  0  0  0  0
   35.7130   31.9160   36.0680 C   0  0  0  0  0  0  0  0  0  0  0  0
   34.8790   32.5060   37.0010 C   0  0  0  0  0  0  0  0  0  0  0  0
   33.6920   31.8620   36.7720 C   0  0  0  0  0  0  0  0  0  0  0  0
   32.7500   32.0410   37.3120 H   0  0  0  0  0  0  0  0  0  0  0  0
   33.7830   30.9770   35.8100 O   0  0  0  0  0  0  0  0  0  0  0  0
   39.3090   25.9460   35.1910 C   0  0  2  0  0  0  0  0  0  0  0  0
   38.7750   27.1370   35.9010 C   0  0  0  0  0  0  0  0  0  0  0  0
   38.5410   26.9630   34.4310 C   0  0  2  0  0  0  0  0  0  0  0  0
   40.3670   25.8710   34.8990 H   0  0  0  0  0  0  0  0  0  0  0  0
   37.9520   27.0210   36.6330 H   0  0  0  0  0  0  0  0  0  0  0  0
   39.4910   27.9420   36.2400 H   0  0  0  0  0  0  0  0  0  0  0  0
   39.1320   27.6790   33.7930 H   0  0  0  0  0  0  0  0  0  0  0  0
   37.5390   23.2810   36.9890 C   0  0  0  0  0  0  0  0  0  0  0  0
   37.4890   22.2030   36.0760 C   0  0  0  0  0  0  0  0  0  0  0  0
   38.0970   22.4470   34.8020 C   0  0  0  0  0  0  0  0  0  0  0  0
   38.6610   23.6540   34.5650 N   0  0  0  0  0  0  0  0  0  0  0  0
   38.6700   24.6530   35.5010 C   0  0  0  0  0  0  0  0  0  0  0  0
   38.1010   24.4610   36.7300 N   0  0  0  0  0  0  0  0  0  0  0  0
   37.1000   23.1620   37.9640 H   0  0  0  0  0  0  0  0  0  0  0  0
   37.0300   21.2650   36.3120 H   0  0  0  0  0  0  0  0  0  0  0  0
   38.0930   21.6660   34.0630 H   0  0  0  0  0  0  0  0  0  0  0  0
  1 21  1  0  0  0  0
  1  2  1  0  0  0  0
  3  1  1  0  0  0  0
  4  1  1  0  0  0  0
  4  9  1  0  0  0  0
  5  4  2  0  0  0  0
  6  5  1  0  0  0  0
  6  7  2  0  0  0  0
  7  8  1  0  0  0  0
  8  9  2  0  0  0  0
  8 13  1  0  0  0  0
 10  5  1  0  0  0  0
 11  6  1  0  0  0  0
 12  7  1  0  0  0  0
 13 18  1  0  0  0  0
 13 14  2  0  0  0  0
 14 15  1  0  0  0  0
 16 15  2  0  0  0  0
 16 17  1  0  0  0  0
 18 16  1  0  0  0  0
 19 22  1  6  0  0  0
 19 30  1  0  0  0  0
 19 20  1  0  0  0  0
 20 24  1  0  0  0  0
 20 23  1  0  0  0  0
 21 25  1  6  0  0  0
 21 19  1  0  0  0  0
 21 20  1  0  0  0  0
 26 32  1  0  0  0  0
 27 33  1  0  0  0  0
 27 26  2  0  0  0  0
 28 27  1  0  0  0  0
 29 28  2  0  0  0  0
 29 30  1  0  0  0  0
 30 31  2  0  0  0  0
 31 26  1  0  0  0  0
 34 28  1  0  0  0  0
M  END
>  <minimizedAffinity>
-5.64664936

>  <minimizedRMSD>
5.5790658

$$$$
