
 OpenBabel03262519173D

 34 37  0  0  0  0  0  0  0  0999 V2000
   37.9410   25.3830   35.8430 C   0  0  0  0  0  0  0  0  0  0  0  0
   38.1380   26.1290   34.6840 C   0  0  0  0  0  0  0  0  0  0  0  0
   39.2520   25.8950   33.8680 C   0  0  0  0  0  0  0  0  0  0  0  0
   40.0860   24.9100   34.2980 N   0  0  0  0  0  0  0  0  0  0  0  0
   39.8800   24.1900   35.4330 C   0  0  0  0  0  0  0  0  0  0  0  0
   38.8020   24.4450   36.1860 N   0  0  0  0  0  0  0  0  0  0  0  0
   37.0490   25.6360   36.4120 H   0  0  0  0  0  0  0  0  0  0  0  0
   39.4630   26.4390   32.9570 H   0  0  0  0  0  0  0  0  0  0  0  0
   40.8700   23.1580   35.7630 C   0  0  0  0  0  0  0  0  0  0  0  0
   41.8560   22.9700   34.8630 C   0  0  0  0  0  0  0  0  0  0  0  0
   42.8850   21.6010   35.6280 S   0  0  0  0  0  0  0  0  0  0  0  0
   41.6880   21.5570   37.1110 C   0  0  0  0  0  0  0  0  0  0  0  0
   40.9980   22.3600   36.7680 N   0  0  0  0  0  0  0  0  0  0  0  0
   41.8400   20.6740   38.1950 N   0  0  0  0  0  0  0  0  0  0  0  0
   42.2200   23.4200   33.7770 H   0  0  0  0  0  0  0  0  0  0  0  0
   41.7980   19.6220   38.0530 H   0  0  0  0  0  0  0  0  0  0  0  0
   41.9930   21.1100   39.1290 H   0  0  0  0  0  0  0  0  0  0  0  0
   37.2560   27.1940   34.2160 C   0  0  0  0  0  0  0  0  0  0  0  0
   36.8290   28.2600   34.9820 C   0  0  0  0  0  0  0  0  0  0  0  0
   36.0250   29.1650   34.3940 C   0  0  0  0  0  0  0  0  0  0  0  0
   35.6750   28.9780   33.0750 C   0  0  0  0  0  0  0  0  0  0  0  0
   36.5530   27.3940   32.6210 S   0  0  0  0  0  0  0  0  0  0  0  0
   37.1840   28.2820   36.0190 H   0  0  0  0  0  0  0  0  0  0  0  0
   35.5460   30.3390   35.1690 C   0  0  0  0  0  0  0  0  0  0  0  0
   34.2440   30.6960   35.4490 C   0  0  0  0  0  0  0  0  0  0  0  0
   34.1630   31.8480   36.1950 C   0  0  0  0  0  0  0  0  0  0  0  0
   35.4860   32.1550   36.3440 C   0  0  0  0  0  0  0  0  0  0  0  0
   35.9210   33.0140   36.8810 H   0  0  0  0  0  0  0  0  0  0  0  0
   36.2240   31.2750   35.7480 O   0  0  0  0  0  0  0  0  0  0  0  0
   34.8750   29.6520   32.1230 C   0  0  0  0  0  0  0  0  0  0  0  0
   35.3820   30.1910   31.1280 O   0  0  0  0  0  0  0  0  0  0  0  0
   33.4570   29.7420   32.2660 N   0  0  0  0  0  0  0  0  0  0  0  0
   33.2260   30.7700   32.4110 H   0  0  0  0  0  0  0  0  0  0  0  0
   33.1490   28.7400   32.1720 H   0  0  0  0  0  0  0  0  0  0  0  0
  1  6  1  0  0  0  0
  1  7  1  0  0  0  0
  2  1  2  0  0  0  0
  3  4  2  0  0  0  0
  3  2  1  0  0  0  0
  4  5  1  0  0  0  0
  5  9  1  0  0  0  0
  5  6  2  0  0  0  0
  8  3  1  0  0  0  0
  9 13  1  0  0  0  0
 10 11  1  0  0  0  0
 10  9  2  0  0  0  0
 11 12  1  0  0  0  0
 12 14  1  0  0  0  0
 13 12  2  0  0  0  0
 14 17  1  0  0  0  0
 15 10  1  0  0  0  0
 16 14  1  0  0  0  0
 18  2  1  0  0  0  0
 18 19  2  0  0  0  0
 19 23  1  0  0  0  0
 20 19  1  0  0  0  0
 20 24  1  0  0  0  0
 21 20  2  0  0  0  0
 22 21  1  0  0  0  0
 22 18  1  0  0  0  0
 24 25  2  0  0  0  0
 24 29  1  0  0  0  0
 25 26  1  0  0  0  0
 26 27  2  0  0  0  0
 27 28  1  0  0  0  0
 29 27  1  0  0  0  0
 30 32  1  0  0  0  0
 30 21  1  0  0  0  0
 31 30  2  0  0  0  0
 32 33  1  0  0  0  0
 34 32  1  0  0  0  0
M  END
>  <minimizedAffinity>
-5.50991821

>  <minimizedRMSD>
2.51406169

$$$$
