
 OpenBabel03262519303D

 30 33  0  0  0  0  0  0  0  0999 V2000
   40.4840   21.9700   37.1820 O   0  0  0  0  0  0  0  0  0  0  0  0
   41.7650   22.1070   36.7180 C   0  0  0  0  0  0  0  0  0  0  0  0
   42.3170   23.2480   36.1700 C   0  0  0  0  0  0  0  0  0  0  0  0
   43.6030   23.0380   35.8160 N   0  0  0  0  0  0  0  0  0  0  0  0
   43.9450   21.7580   36.1150 C   0  0  0  0  0  0  0  0  0  0  0  0
   45.1120   21.0370   35.9650 C   0  0  0  0  0  0  0  0  0  0  0  0
   45.1560   19.7060   36.3790 C   0  0  0  0  0  0  0  0  0  0  0  0
   44.0300   19.1220   36.9360 C   0  0  0  0  0  0  0  0  0  0  0  0
   42.8570   19.8670   37.0800 C   0  0  0  0  0  0  0  0  0  0  0  0
   42.8080   21.1960   36.6690 C   0  0  0  0  0  0  0  0  0  0  0  0
   41.8080   24.1960   36.0320 H   0  0  0  0  0  0  0  0  0  0  0  0
   44.2230   23.7560   35.3820 H   0  0  0  0  0  0  0  0  0  0  0  0
   45.9870   21.5070   35.5260 H   0  0  0  0  0  0  0  0  0  0  0  0
   46.0500   19.1110   36.2760 H   0  0  0  0  0  0  0  0  0  0  0  0
   44.0070   18.0880   37.2760 H   0  0  0  0  0  0  0  0  0  0  0  0
   41.9650   19.4170   37.5180 H   0  0  0  0  0  0  0  0  0  0  0  0
   39.5460   22.9520   37.2640 C   0  0  0  0  0  0  0  0  0  0  0  0
   39.0300   23.2240   38.5360 C   0  0  0  0  0  0  0  0  0  0  0  0
   38.0640   24.2340   38.6310 C   0  0  0  0  0  0  0  0  0  0  0  0
   37.6840   24.8850   37.5160 N   0  0  0  0  0  0  0  0  0  0  0  0
   38.2040   24.5970   36.3040 C   0  0  0  0  0  0  0  0  0  0  0  0
   39.1250   23.6400   36.1760 N   0  0  0  0  0  0  0  0  0  0  0  0
   39.3680   22.6720   39.4070 H   0  0  0  0  0  0  0  0  0  0  0  0
   37.6320   24.4860   39.5860 H   0  0  0  0  0  0  0  0  0  0  0  0
   37.8260   25.2730   35.0650 C   0  0  0  0  0  0  0  0  0  0  0  0
   37.4300   26.6040   35.1370 C   0  0  0  0  0  0  0  0  0  0  0  0
   37.1260   27.0130   33.8390 C   0  0  0  0  0  0  0  0  0  0  0  0
   37.3620   25.8820   33.0490 C   0  0  0  0  0  0  0  0  0  0  0  0
   37.2670   25.7070   31.9730 H   0  0  0  0  0  0  0  0  0  0  0  0
   37.7720   24.8850   33.8150 O   0  0  0  0  0  0  0  0  0  0  0  0
  1 17  1  0  0  0  0
  2  1  1  0  0  0  0
  3  2  2  0  0  0  0
  4  5  1  0  0  0  0
  4  3  1  0  0  0  0
  5 10  1  0  0  0  0
  6  5  2  0  0  0  0
  6  7  1  0  0  0  0
  7  8  2  0  0  0  0
  8  9  1  0  0  0  0
  8 15  1  0  0  0  0
  9 16  1  0  0  0  0
 10  2  1  0  0  0  0
 10  9  2  0  0  0  0
 11  3  1  0  0  0  0
 12  4  1  0  0  0  0
 13  6  1  0  0  0  0
 14  7  1  0  0  0  0
 17 18  1  0  0  0  0
 18 19  2  0  0  0  0
 18 23  1  0  0  0  0
 19 24  1  0  0  0  0
 20 19  1  0  0  0  0
 21 20  2  0  0  0  0
 22 21  1  0  0  0  0
 22 17  2  0  0  0  0
 25 26  2  0  0  0  0
 25 21  1  0  0  0  0
 27 26  1  0  0  0  0
 28 30  1  0  0  0  0
 28 27  2  0  0  0  0
 29 28  1  0  0  0  0
 30 25  1  0  0  0  0
M  END
>  <minimizedAffinity>
-5.11646414

>  <minimizedRMSD>
1.40142345

$$$$
