
 OpenBabel03262516053D

 18 19  0  0  0  0  0  0  0  0999 V2000
   40.9230   22.5390   37.1270 C   0  0  0  0  0  0  0  0  0  0  0  0
   41.8450   23.3280   36.4370 C   0  0  0  0  0  0  0  0  0  0  0  0
   43.1120   22.7810   36.1600 C   0  0  0  0  0  0  0  0  0  0  0  0
   43.3640   21.5030   36.5860 N   0  0  0  0  0  0  0  0  0  0  0  0
   42.4420   20.7700   37.2530 C   0  0  0  0  0  0  0  0  0  0  0  0
   41.2280   21.3050   37.5140 N   0  0  0  0  0  0  0  0  0  0  0  0
   41.6650   24.3340   36.0940 H   0  0  0  0  0  0  0  0  0  0  0  0
   42.6870   19.7640   37.5700 H   0  0  0  0  0  0  0  0  0  0  0  0
   39.6120   23.1180   37.4070 C   0  0  0  0  0  0  0  0  0  0  0  0
   38.7170   23.5590   36.4330 C   0  0  0  0  0  0  0  0  0  0  0  0
   37.6340   24.0190   37.1390 C   0  0  0  0  0  0  0  0  0  0  0  0
   37.8870   23.8540   38.4850 C   0  0  0  0  0  0  0  0  0  0  0  0
   37.2420   24.1130   39.3130 H   0  0  0  0  0  0  0  0  0  0  0  0
   39.0830   23.3110   38.5900 O   0  0  0  0  0  0  0  0  0  0  0  0
   44.1360   23.5800   35.4260 C   0  0  0  0  0  0  0  0  0  0  0  0
   44.3580   24.4970   36.0040 H   0  0  0  0  0  0  0  0  0  0  0  0
   45.0190   22.9400   35.3070 H   0  0  0  0  0  0  0  0  0  0  0  0
   43.7010   23.8070   34.4180 H   0  0  0  0  0  0  0  0  0  0  0  0
  1  9  1  0  0  0  0
  1  6  1  0  0  0  0
  2  1  2  0  0  0  0
  3  2  1  0  0  0  0
  3  4  2  0  0  0  0
  4  5  1  0  0  0  0
  5  6  2  0  0  0  0
  5  8  1  0  0  0  0
  7  2  1  0  0  0  0
  9 14  1  0  0  0  0
 10 11  1  0  0  0  0
 10  9  2  0  0  0  0
 11 12  2  0  0  0  0
 12 14  1  0  0  0  0
 12 13  1  0  0  0  0
 15 16  1  0  0  0  0
 15  3  1  0  0  0  0
 17 15  1  0  0  0  0
 18 15  1  0  0  0  0
M  END
>  <minimizedAffinity>
-3.62505221

>  <minimizedRMSD>
4.79112387

$$$$
