
 OpenBabel03262519573D

 29 32  0  0  1  0  0  0  0  0999 V2000
   38.1360   23.8510   34.5680 C   0  0  0  0  0  0  0  0  0  0  0  0
   38.3070   25.0770   33.9250 C   0  0  0  0  0  0  0  0  0  0  0  0
   37.8800   24.8250   32.6450 N   0  0  0  0  0  0  0  0  0  0  0  0
   37.5020   23.5650   32.5780 C   0  0  0  0  0  0  0  0  0  0  0  0
   37.6470   22.9290   33.7540 N   0  0  0  0  0  0  0  0  0  0  0  0
   38.6810   26.0040   34.3200 H   0  0  0  0  0  0  0  0  0  0  0  0
   37.1170   23.1070   31.6580 H   0  0  0  0  0  0  0  0  0  0  0  0
   38.4540   23.6090   35.9630 C   0  0  0  0  0  0  0  0  0  0  0  0
   39.6580   23.0200   36.3300 C   0  0  0  0  0  0  0  0  0  0  0  0
   39.9370   22.7980   37.6970 C   0  0  0  0  0  0  0  0  0  0  0  0
   39.0020   23.1770   38.5760 N   0  0  0  0  0  0  0  0  0  0  0  0
   37.8280   23.7530   38.2060 C   0  0  0  0  0  0  0  0  0  0  0  0
   37.5450   23.9720   36.9050 N   0  0  0  0  0  0  0  0  0  0  0  0
   40.3780   22.7310   35.6060 H   0  0  0  0  0  0  0  0  0  0  0  0
   40.8540   22.3450   38.0380 H   0  0  0  0  0  0  0  0  0  0  0  0
   37.0550   24.0700   38.8920 H   0  0  0  0  0  0  0  0  0  0  0  0
   37.3100   21.5360   33.9680 C   0  0  1  0  0  0  0  0  0  0  0  0
   36.1360   21.1230   34.7170 C   0  0  0  0  0  0  0  0  0  0  0  0
   36.0640   21.1260   33.1970 C   0  0  2  0  0  0  0  0  0  0  0  0
   38.1700   20.8750   33.7410 H   0  0  0  0  0  0  0  0  0  0  0  0
   36.2000   20.1720   35.2700 H   0  0  0  0  0  0  0  0  0  0  0  0
   35.5620   21.9000   35.2500 H   0  0  0  0  0  0  0  0  0  0  0  0
   35.4370   21.8960   32.7110 H   0  0  0  0  0  0  0  0  0  0  0  0
   36.0130   19.7500   32.6310 C   0  0  0  0  0  0  0  0  0  0  0  0
   36.6380   19.2680   31.4730 C   0  0  0  0  0  3  0  0  0  0  0  0
   36.2820   17.9290   31.3800 C   0  0  0  0  0  3  0  0  0  0  0  0
   35.4730   17.6710   32.4670 C   0  0  0  0  0  0  0  0  0  0  0  0
   35.0120   16.7070   32.7050 H   0  0  0  0  0  0  0  0  0  0  0  0
   35.3370   18.7440   33.1700 O   0  0  0  0  0  0  0  0  0  0  0  0
  1  8  1  0  0  0  0
  2  6  1  0  0  0  0
  2  1  2  0  0  0  0
  3  2  1  0  0  0  0
  4  3  2  0  0  0  0
  4  5  1  0  0  0  0
  5 17  1  0  0  0  0
  5  1  1  0  0  0  0
  7  4  1  0  0  0  0
  8  9  2  0  0  0  0
  8 13  1  0  0  0  0
  9 10  1  0  0  0  0
 10 15  1  0  0  0  0
 10 11  2  0  0  0  0
 12 11  1  0  0  0  0
 12 16  1  0  0  0  0
 13 12  2  0  0  0  0
 14  9  1  0  0  0  0
 17 20  1  6  0  0  0
 17 18  1  0  0  0  0
 18 22  1  0  0  0  0
 18 21  1  0  0  0  0
 19 23  1  6  0  0  0
 19 17  1  0  0  0  0
 19 18  1  0  0  0  0
 24 29  1  0  0  0  0
 24 19  1  0  0  0  0
 25 24  2  0  0  0  0
 26 25  1  0  0  0  0
 26 27  2  0  0  0  0
 27 28  1  0  0  0  0
 27 29  1  0  0  0  0
M  END
>  <minimizedAffinity>
-4.76505089

>  <minimizedRMSD>
0.766812027

$$$$
