
 OpenBabel03262520003D

 32 35  0  0  1  0  0  0  0  0999 V2000
   38.9120   23.4510   32.3570 C   0  0  0  0  0  0  0  0  0  0  0  0
   39.5010   22.5000   31.5280 C   0  0  0  0  0  0  0  0  0  0  0  0
   39.4410   21.3480   32.2670 N   0  0  0  0  0  0  0  0  0  0  0  0
   38.8570   21.6430   33.4250 C   0  0  0  0  0  0  0  0  0  0  0  0
   38.5220   22.9260   33.5050 N   0  0  0  0  0  0  0  0  0  0  0  0
   39.8920   22.7110   30.5400 H   0  0  0  0  0  0  0  0  0  0  0  0
   38.7570   20.7930   34.0940 H   0  0  0  0  0  0  0  0  0  0  0  0
   38.7470   24.8540   32.0080 C   0  0  0  0  0  0  0  0  0  0  0  0
   39.7360   25.7870   32.3740 C   0  0  0  0  0  0  0  0  0  0  0  0
   39.5350   27.1380   32.0010 C   0  0  0  0  0  0  0  0  0  0  0  0
   38.4000   27.4380   31.3160 N   0  0  0  0  0  0  0  0  0  0  0  0
   37.4750   26.5070   30.9860 C   0  0  0  0  0  0  0  0  0  0  0  0
   37.6360   25.2170   31.3240 N   0  0  0  0  0  0  0  0  0  0  0  0
   40.5720   25.4060   32.9110 H   0  0  0  0  0  0  0  0  0  0  0  0
   40.2900   27.8300   32.2850 H   0  0  0  0  0  0  0  0  0  0  0  0
   36.6350   26.9150   30.4430 H   0  0  0  0  0  0  0  0  0  0  0  0
   37.8870   23.4920   34.6350 C   0  0  1  0  0  0  0  0  0  0  0  0
   37.8590   22.9490   35.9670 C   0  0  0  0  0  0  0  0  0  0  0  0
   38.8100   24.1340   35.6200 C   0  0  1  0  0  0  0  0  0  0  0  0
   36.9790   24.1220   34.3240 H   0  0  0  0  0  0  0  0  0  0  0  0
   37.0490   23.1880   36.6750 H   0  0  0  0  0  0  0  0  0  0  0  0
   38.3760   22.0150   36.2030 H   0  0  0  0  0  0  0  0  0  0  0  0
   40.2030   23.6810   35.9800 C   0  0  0  0  0  0  0  0  0  0  0  0
   41.3120   24.1090   35.2470 C   0  0  0  0  0  3  0  0  0  0  0  0
   42.4250   23.5090   35.8400 C   0  0  0  0  0  3  0  0  0  0  0  0
   41.9140   22.7540   36.8970 C   0  0  0  0  0  0  0  0  0  0  0  0
   42.4750   22.1460   37.5900 H   0  0  0  0  0  0  0  0  0  0  0  0
   40.6290   22.8740   36.9500 O   0  0  0  0  0  0  0  0  0  0  0  0
   38.3340   25.4110   36.2800 C   0  0  0  0  0  0  0  0  0  0  0  0
   39.1530   26.4610   35.9180 F   0  0  0  0  0  0  0  0  0  0  0  0
   37.0480   25.7670   35.6920 F   0  0  0  0  0  0  0  0  0  0  0  0
   38.1230   25.3080   37.6000 F   0  0  0  0  0  0  0  0  0  0  0  0
  1  5  1  0  0  0  0
  2  3  1  0  0  0  0
  2  1  2  0  0  0  0
  3  4  2  0  0  0  0
  4  5  1  0  0  0  0
  4  7  1  0  0  0  0
  5 17  1  0  0  0  0
  6  2  1  0  0  0  0
  8  1  1  0  0  0  0
  8  9  1  0  0  0  0
  9 14  1  0  0  0  0
 10 15  1  0  0  0  0
 10  9  2  0  0  0  0
 11 10  1  0  0  0  0
 12 11  2  0  0  0  0
 12 13  1  0  0  0  0
 13  8  2  0  0  0  0
 16 12  1  0  0  0  0
 17 20  1  6  0  0  0
 17 19  1  0  0  0  0
 17 18  1  0  0  0  0
 18 22  1  0  0  0  0
 18 21  1  0  0  0  0
 19 18  1  0  0  0  0
 19 23  1  0  0  0  0
 19 29  1  1  0  0  0
 23 28  1  0  0  0  0
 24 25  1  0  0  0  0
 24 23  2  0  0  0  0
 25 26  2  0  0  0  0
 26 28  1  0  0  0  0
 26 27  1  0  0  0  0
 29 32  1  0  0  0  0
 30 29  1  0  0  0  0
 31 29  1  0  0  0  0
M  END
>  <minimizedAffinity>
-4.25274706

>  <minimizedRMSD>
3.776968

$$$$
