
 OpenBabel03262519563D

 29 32  0  0  1  0  0  0  0  0999 V2000
   38.1550   23.9260   34.5620 C   0  0  0  0  0  0  0  0  0  0  0  0
   38.3120   25.1710   33.9550 C   0  0  0  0  0  0  0  0  0  0  0  0
   37.9000   24.9480   32.6650 N   0  0  0  0  0  0  0  0  0  0  0  0
   37.5420   23.6850   32.5610 C   0  0  0  0  0  0  0  0  0  0  0  0
   37.6870   23.0190   33.7200 N   0  0  0  0  0  0  0  0  0  0  0  0
   38.6680   26.0930   34.3780 H   0  0  0  0  0  0  0  0  0  0  0  0
   37.1710   23.2470   31.6250 H   0  0  0  0  0  0  0  0  0  0  0  0
   38.4650   23.6510   35.9530 C   0  0  0  0  0  0  0  0  0  0  0  0
   39.6670   23.0530   36.3130 C   0  0  0  0  0  0  0  0  0  0  0  0
   39.9390   22.7980   37.6750 C   0  0  0  0  0  0  0  0  0  0  0  0
   38.9990   23.1570   38.5580 N   0  0  0  0  0  0  0  0  0  0  0  0
   37.8270   23.7420   38.1950 C   0  0  0  0  0  0  0  0  0  0  0  0
   37.5510   23.9920   36.8990 N   0  0  0  0  0  0  0  0  0  0  0  0
   40.3900   22.7810   35.5850 H   0  0  0  0  0  0  0  0  0  0  0  0
   40.8540   22.3370   38.0100 H   0  0  0  0  0  0  0  0  0  0  0  0
   37.0500   24.0420   38.8850 H   0  0  0  0  0  0  0  0  0  0  0  0
   37.3690   21.6160   33.8930 C   0  0  1  0  0  0  0  0  0  0  0  0
   36.2090   21.1640   34.6410 C   0  0  0  0  0  0  0  0  0  0  0  0
   36.1200   21.2150   33.1220 C   0  0  2  0  0  0  0  0  0  0  0  0
   38.2350   20.9740   33.6360 H   0  0  0  0  0  0  0  0  0  0  0  0
   36.2910   20.1970   35.1620 H   0  0  0  0  0  0  0  0  0  0  0  0
   35.6310   21.9170   35.2040 H   0  0  0  0  0  0  0  0  0  0  0  0
   35.4780   21.9920   32.6680 H   0  0  0  0  0  0  0  0  0  0  0  0
   36.0800   19.8570   32.5130 C   0  0  0  0  0  0  0  0  0  0  0  0
   35.3720   18.7320   32.9530 C   0  0  0  0  0  3  0  0  0  0  0  0
   35.6650   17.7210   32.0480 C   0  0  0  0  0  3  0  0  0  0  0  0
   36.5220   18.2740   31.1200 C   0  0  0  0  0  0  0  0  0  0  0  0
   36.9550   17.7530   30.2600 H   0  0  0  0  0  0  0  0  0  0  0  0
   36.7430   19.5100   31.4160 O   0  0  0  0  0  0  0  0  0  0  0  0
  1  8  1  0  0  0  0
  2  6  1  0  0  0  0
  2  1  2  0  0  0  0
  3  2  1  0  0  0  0
  4  3  2  0  0  0  0
  4  5  1  0  0  0  0
  5 17  1  0  0  0  0
  5  1  1  0  0  0  0
  7  4  1  0  0  0  0
  8  9  2  0  0  0  0
  8 13  1  0  0  0  0
  9 10  1  0  0  0  0
 10 15  1  0  0  0  0
 10 11  2  0  0  0  0
 12 11  1  0  0  0  0
 12 16  1  0  0  0  0
 13 12  2  0  0  0  0
 14  9  1  0  0  0  0
 17 20  1  6  0  0  0
 17 18  1  0  0  0  0
 18 21  1  0  0  0  0
 18 22  1  0  0  0  0
 19 23  1  6  0  0  0
 19 17  1  0  0  0  0
 19 18  1  0  0  0  0
 24 25  2  0  0  0  0
 24 19  1  0  0  0  0
 26 25  1  0  0  0  0
 27 29  1  0  0  0  0
 27 26  2  0  0  0  0
 28 27  1  0  0  0  0
 29 24  1  0  0  0  0
M  END
>  <minimizedAffinity>
-4.77376795

>  <minimizedRMSD>
0.897597373

$$$$
