
 OpenBabel03262519543D

 26 28  0  0  1  0  0  0  0  0999 V2000
   38.1130   23.6990   34.4420 C   0  0  0  0  0  0  0  0  0  0  0  0
   38.2920   24.8810   33.7520 C   0  0  0  0  0  0  0  0  0  0  0  0
   37.8670   24.5750   32.4830 N   0  0  0  0  0  0  0  0  0  0  0  0
   37.4810   23.3180   32.4650 C   0  0  0  0  0  0  0  0  0  0  0  0
   37.6130   22.7220   33.6670 N   0  0  0  0  0  0  0  0  0  0  0  0
   38.6760   25.8210   34.1290 H   0  0  0  0  0  0  0  0  0  0  0  0
   37.0980   22.8400   31.5580 H   0  0  0  0  0  0  0  0  0  0  0  0
   38.4240   23.5100   35.8490 C   0  0  0  0  0  0  0  0  0  0  0  0
   39.6260   22.9270   36.2520 C   0  0  0  0  0  0  0  0  0  0  0  0
   39.8820   22.7660   37.6280 C   0  0  0  0  0  0  0  0  0  0  0  0
   38.9350   23.1920   38.4920 N   0  0  0  0  0  0  0  0  0  0  0  0
   37.7790   23.7530   38.0870 C   0  0  0  0  0  0  0  0  0  0  0  0
   37.5170   23.9150   36.7740 N   0  0  0  0  0  0  0  0  0  0  0  0
   40.3310   22.6140   35.5080 H   0  0  0  0  0  0  0  0  0  0  0  0
   40.8220   22.3110   37.9310 H   0  0  0  0  0  0  0  0  0  0  0  0
   37.0390   24.0830   38.8130 H   0  0  0  0  0  0  0  0  0  0  0  0
   37.2710   21.3550   33.9480 C   0  0  1  0  0  0  0  0  0  0  0  0
   36.0600   20.9730   34.6640 C   0  0  0  0  0  0  0  0  0  0  0  0
   36.0550   20.9050   33.1590 C   0  0  1  0  0  0  0  0  0  0  0  0
   38.1120   20.6390   33.8390 H   0  0  0  0  0  0  0  0  0  0  0  0
   36.1100   20.0510   35.2740 H   0  0  0  0  0  0  0  0  0  0  0  0
   35.5290   21.8110   35.1810 H   0  0  0  0  0  0  0  0  0  0  0  0
   35.9850   19.8840   32.7610 H   0  0  0  0  0  0  0  0  0  0  0  0
   35.2080   21.8870   32.5200 N   0  0  0  0  0  0  0  0  0  0  0  0
   35.0090   22.7020   33.1360 H   0  0  0  0  0  0  0  0  0  0  0  0
   34.2660   21.4010   32.4130 H   0  0  0  0  0  0  0  0  0  0  0  0
  1  8  1  0  0  0  0
  2  6  1  0  0  0  0
  2  1  2  0  0  0  0
  3  2  1  0  0  0  0
  4  3  2  0  0  0  0
  4  5  1  0  0  0  0
  5 17  1  0  0  0  0
  5  1  1  0  0  0  0
  7  4  1  0  0  0  0
  8  9  2  0  0  0  0
  8 13  1  0  0  0  0
  9 10  1  0  0  0  0
 10 15  1  0  0  0  0
 10 11  2  0  0  0  0
 12 11  1  0  0  0  0
 12 16  1  0  0  0  0
 13 12  2  0  0  0  0
 14  9  1  0  0  0  0
 17 20  1  1  0  0  0
 17 18  1  0  0  0  0
 18 22  1  0  0  0  0
 18 21  1  0  0  0  0
 19 23  1  6  0  0  0
 19 17  1  0  0  0  0
 19 18  1  0  0  0  0
 24 25  1  0  0  0  0
 24 19  1  0  0  0  0
 26 24  1  0  0  0  0
M  END
>  <minimizedAffinity>
-3.89866853

>  <minimizedRMSD>
0.430973232

$$$$
