
 OpenBabel03262518433D

 33 36  0  0  1  0  0  0  0  0999 V2000
   38.0510   23.6060   30.9020 C   0  0  0  0  0  0  0  0  0  0  0  0
   36.7550   24.1610   30.9880 C   0  0  0  0  0  0  0  0  0  0  0  0
   36.5750   25.3480   31.6720 C   0  0  0  0  0  0  0  0  0  0  0  0
   37.6800   25.9280   32.2380 N   0  0  0  0  0  0  0  0  0  0  0  0
   38.8960   25.3700   32.1330 C   0  0  0  0  0  0  0  0  0  0  0  0
   39.0940   24.2220   31.4770 N   0  0  0  0  0  0  0  0  0  0  0  0
   39.9640   26.0760   32.7660 N   0  0  0  0  0  0  0  0  0  0  0  0
   40.4640   27.0330   32.0350 N   0  0  0  0  0  0  0  0  0  0  0  0
   41.4670   27.6310   32.7330 C   0  0  0  0  0  0  0  0  0  0  0  0
   41.5790   27.0210   33.9240 C   0  0  0  0  0  0  0  0  0  0  0  0
   40.6130   26.0250   33.9390 C   0  0  0  0  0  0  0  0  0  0  0  0
   35.8920   23.6820   30.5310 H   0  0  0  0  0  0  0  0  0  0  0  0
   35.6350   25.8440   31.7910 H   0  0  0  0  0  0  0  0  0  0  0  0
   42.1050   28.4610   32.4440 H   0  0  0  0  0  0  0  0  0  0  0  0
   42.2080   27.1300   34.7990 H   0  0  0  0  0  0  0  0  0  0  0  0
   40.1760   25.0010   34.8910 C   0  0  0  0  0  0  0  0  0  0  0  0
   40.6470   23.8150   35.2270 N   0  0  0  0  0  0  0  0  0  0  0  0
   39.9070   23.2630   36.1380 O   0  0  0  0  0  0  0  0  0  0  0  0
   38.9250   24.1420   36.3870 C   0  0  0  0  0  0  0  0  0  0  0  0
   39.0450   25.2440   35.6340 N   0  0  0  0  0  0  0  0  0  0  0  0
   37.8020   23.9570   37.3830 C   0  0  2  0  0  0  0  0  0  0  0  0
   37.9170   24.6010   38.7300 C   0  0  0  0  0  0  0  0  0  0  0  0
   38.0350   23.1030   38.5840 C   0  0  1  0  0  0  0  0  0  0  0  0
   36.8330   24.1340   36.9120 H   0  0  0  0  0  0  0  0  0  0  0  0
   37.0390   25.0440   39.1880 H   0  0  0  0  0  0  0  0  0  0  0  0
   38.8820   25.1000   38.9840 H   0  0  0  0  0  0  0  0  0  0  0  0
   39.0010   22.6000   38.6920 H   0  0  0  0  0  0  0  0  0  0  0  0
   36.8610   22.3070   38.9540 N   0  0  0  0  0  0  0  0  0  0  0  0
   35.9940   22.6990   38.5140 H   0  0  0  0  0  0  0  0  0  0  0  0
   36.9360   21.3370   38.5720 H   0  0  0  0  0  0  0  0  0  0  0  0
   38.2420   22.3810   30.1960 N   0  0  0  0  0  0  0  0  0  0  0  0
   37.5570   21.6550   30.5210 H   0  0  0  0  0  0  0  0  0  0  0  0
   38.9970   22.3020   29.4620 H   0  0  0  0  0  0  0  0  0  0  0  0
  1  2  2  0  0  0  0
  1  6  1  0  0  0  0
  2  3  1  0  0  0  0
  3 13  1  0  0  0  0
  3  4  2  0  0  0  0
  5  4  1  0  0  0  0
  5  7  1  0  0  0  0
  6  5  2  0  0  0  0
  7 11  1  0  0  0  0
  8  9  2  0  0  0  0
  8  7  1  0  0  0  0
  9 10  1  0  0  0  0
 10 11  2  0  0  0  0
 10 15  1  0  0  0  0
 11 16  1  0  0  0  0
 12  2  1  0  0  0  0
 14  9  1  0  0  0  0
 16 17  2  0  0  0  0
 16 20  1  0  0  0  0
 17 18  1  0  0  0  0
 18 19  1  0  0  0  0
 19 21  1  0  0  0  0
 20 19  2  0  0  0  0
 21 24  1  6  0  0  0
 21 23  1  0  0  0  0
 21 22  1  0  0  0  0
 22 26  1  0  0  0  0
 22 25  1  0  0  0  0
 23 27  1  1  0  0  0
 23 22  1  0  0  0  0
 23 28  1  0  0  0  0
 29 28  1  0  0  0  0
 30 28  1  0  0  0  0
 31 32  1  0  0  0  0
 31  1  1  0  0  0  0
 33 31  1  0  0  0  0
M  END
>  <minimizedAffinity>
-4.81346798

>  <minimizedRMSD>
0.129996181

$$$$
