
 OpenBabel03262517383D

 29 31  0  0  0  0  0  0  0  0999 V2000
   39.4620   22.9230   36.5410 C   0  0  0  0  0  0  0  0  0  0  0  0
   39.9160   23.8180   35.5950 C   0  0  0  0  0  0  0  0  0  0  0  0
   41.2660   23.8910   35.3420 C   0  0  0  0  0  0  0  0  0  0  0  0
   42.1010   23.0740   36.0410 N   0  0  0  0  0  0  0  0  0  0  0  0
   41.6340   22.2150   36.9530 C   0  0  0  0  0  0  0  0  0  0  0  0
   40.3270   22.1240   37.2160 N   0  0  0  0  0  0  0  0  0  0  0  0
   41.9280   24.7370   34.4170 N   0  0  0  0  0  0  0  0  0  0  0  0
   42.4240   26.0680   34.6970 C   0  0  0  0  0  0  0  0  0  0  0  0
   41.7250   27.0660   33.7910 C   0  0  0  0  0  0  0  0  0  0  0  0
   41.0460   26.4010   32.7690 O   0  0  0  0  0  0  0  0  0  0  0  0
   41.9250   25.5480   32.1110 C   0  0  0  0  0  0  0  0  0  0  0  0
   42.2100   24.3800   33.0280 C   0  0  0  0  0  0  0  0  0  0  0  0
   39.3010   24.4920   35.0100 H   0  0  0  0  0  0  0  0  0  0  0  0
   42.3460   21.5790   37.4870 H   0  0  0  0  0  0  0  0  0  0  0  0
   42.1810   26.2700   35.7730 H   0  0  0  0  0  0  0  0  0  0  0  0
   43.5310   26.0980   34.5180 H   0  0  0  0  0  0  0  0  0  0  0  0
   42.4260   27.8300   33.4030 H   0  0  0  0  0  0  0  0  0  0  0  0
   40.9470   27.5760   34.3870 H   0  0  0  0  0  0  0  0  0  0  0  0
   42.8420   26.0590   31.8060 H   0  0  0  0  0  0  0  0  0  0  0  0
   41.4410   25.1430   31.2040 H   0  0  0  0  0  0  0  0  0  0  0  0
   41.5950   23.4810   32.7680 H   0  0  0  0  0  0  0  0  0  0  0  0
   43.2960   24.1330   32.9650 H   0  0  0  0  0  0  0  0  0  0  0  0
   38.0490   22.8860   36.7670 C   0  0  0  0  0  0  0  0  0  0  0  0
   37.4080   23.4420   37.6920 O   0  0  0  0  0  0  0  0  0  0  0  0
   37.2670   22.0800   35.7680 C   0  0  0  0  0  0  0  0  0  0  0  0
   36.1190   21.2560   36.1200 C   0  0  0  0  0  0  0  0  0  0  0  0
   35.5720   20.6180   35.0370 C   0  0  0  0  0  0  0  0  0  0  0  0
   36.0460   20.7400   33.7790 C   0  0  0  0  0  0  0  0  0  0  0  0
   37.5160   21.9430   34.0740 S   0  0  0  0  0  0  0  0  0  0  0  0
  1 23  1  0  0  0  0
  1  6  1  0  0  0  0
  2  1  2  0  0  0  0
  3  2  1  0  0  0  0
  3  4  2  0  0  0  0
  4  5  1  0  0  0  0
  5  6  2  0  0  0  0
  5 14  1  0  0  0  0
  7  8  1  0  0  0  0
  7  3  1  0  0  0  0
  8 15  1  0  0  0  0
  9 18  1  0  0  0  0
  9  8  1  0  0  0  0
 10  9  1  0  0  0  0
 11 10  1  0  0  0  0
 11 12  1  0  0  0  0
 12  7  1  0  0  0  0
 13  2  1  0  0  0  0
 16  8  1  0  0  0  0
 17  9  1  0  0  0  0
 19 11  1  0  0  0  0
 20 11  1  0  0  0  0
 21 12  1  0  0  0  0
 22 12  1  0  0  0  0
 23 24  2  0  0  0  0
 25 26  2  0  0  0  0
 25 23  1  0  0  0  0
 27 26  1  0  0  0  0
 28 29  1  0  0  0  0
 28 27  2  0  0  0  0
 29 25  1  0  0  0  0
M  END
>  <minimizedAffinity>
-4.31536102

>  <minimizedRMSD>
3.82846761

$$$$
