
 OpenBabel03262512503D

 37 39  0  0  1  0  0  0  0  0999 V2000
   38.4500   23.4810   32.4340 C   0  0  1  0  0  0  0  0  0  0  0  0
   38.2290   22.4960   32.8940 H   0  0  0  0  0  0  0  0  0  0  0  0
   34.8250   20.2330   32.5010 C   0  0  0  0  0  0  0  0  0  0  0  0
   35.5430   19.4180   31.5820 C   0  0  0  0  0  0  0  0  0  0  0  0
   36.4070   20.0400   30.6930 C   0  0  0  0  0  0  0  0  0  0  0  0
   36.5140   21.3860   30.7570 N   0  0  0  0  0  0  0  0  0  0  0  0
   35.8180   22.1480   31.6440 C   0  0  0  0  0  0  0  0  0  0  0  0
   34.9740   21.5740   32.5160 N   0  0  0  0  0  0  0  0  0  0  0  0
   37.1700   19.3640   29.7420 N   0  0  0  0  0  0  0  0  0  0  0  0
   36.0380   23.5580   31.5850 N   0  0  0  0  0  0  0  0  0  0  0  0
   35.1870   24.4890   31.2030 N   0  0  0  0  0  0  0  0  0  0  0  0
   35.7470   25.7160   31.2690 C   0  0  0  0  0  0  0  0  0  0  0  0
   37.0520   25.5110   31.7320 C   0  0  0  0  0  0  0  0  0  0  0  0
   37.2040   24.1280   31.9240 C   0  0  0  0  0  0  0  0  0  0  0  0
   34.1680   19.7050   33.1690 H   0  0  0  0  0  0  0  0  0  0  0  0
   35.4370   18.3470   31.5560 H   0  0  0  0  0  0  0  0  0  0  0  0
   37.2080   19.4100   28.6970 H   0  0  0  0  0  0  0  0  0  0  0  0
   37.8850   18.6410   30.0280 H   0  0  0  0  0  0  0  0  0  0  0  0
   35.2980   26.6500   31.0220 H   0  0  0  0  0  0  0  0  0  0  0  0
   37.8090   26.2870   31.9110 H   0  0  0  0  0  0  0  0  0  0  0  0
   39.4040   23.2660   31.2410 C   0  0  0  0  0  0  0  0  0  0  0  0
   40.4030   23.1410   31.6980 H   0  0  0  0  0  0  0  0  0  0  0  0
   39.2910   24.1090   30.5620 H   0  0  0  0  0  0  0  0  0  0  0  0
   39.2070   22.3390   30.7000 H   0  0  0  0  0  0  0  0  0  0  0  0
   39.1150   24.3710   33.4320 C   0  0  0  0  0  0  0  0  0  0  0  0
   38.9310   25.4260   33.2310 H   0  0  0  0  0  0  0  0  0  0  0  0
   40.2130   24.1900   33.4660 H   0  0  0  0  0  0  0  0  0  0  0  0
   38.6100   24.0740   34.8180 C   0  0  0  0  0  0  0  0  0  0  0  0
   38.7830   22.8660   35.4790 C   0  0  0  0  0  0  0  0  0  0  0  0
   38.2070   22.9600   36.6820 N   0  0  0  0  0  0  0  0  0  0  0  0
   37.6680   24.2020   36.8090 C   0  0  0  0  0  0  0  0  0  0  0  0
   37.9160   24.8740   35.6750 N   0  0  0  0  0  0  0  0  0  0  0  0
   39.3080   22.0190   35.0390 H   0  0  0  0  0  0  0  0  0  0  0  0
   37.1400   24.5440   37.6900 H   0  0  0  0  0  0  0  0  0  0  0  0
   37.5200   26.2220   35.3900 C   0  0  0  0  0  0  0  0  0  0  0  0
   38.6260   27.1570   35.8930 C   0  0  0  0  0  0  0  0  0  0  0  0
   38.1790   28.1710   35.9160 H   0  0  0  0  0  0  0  0  0  0  0  0
  1  2  1  1  0  0  0
  1 25  1  0  0  0  0
  3  8  1  0  0  0  0
  3 15  1  0  0  0  0
  4  3  2  0  0  0  0
  5  6  2  0  0  0  0
  5  4  1  0  0  0  0
  6  7  1  0  0  0  0
  7  8  2  0  0  0  0
  9 18  1  0  0  0  0
  9  5  1  0  0  0  0
 10  7  1  0  0  0  0
 10 14  1  0  0  0  0
 11 12  2  0  0  0  0
 11 10  1  0  0  0  0
 12 13  1  0  0  0  0
 13 20  1  0  0  0  0
 13 14  2  0  0  0  0
 14  1  1  0  0  0  0
 16  4  1  0  0  0  0
 17  9  1  0  0  0  0
 19 12  1  0  0  0  0
 21 22  1  0  0  0  0
 21  1  1  0  0  0  0
 23 21  1  0  0  0  0
 24 21  1  0  0  0  0
 25 27  1  0  0  0  0
 25 28  1  0  0  0  0
 26 25  1  0  0  0  0
 28 29  2  0  0  0  0
 28 32  1  0  0  0  0
 29 30  1  0  0  0  0
 30 31  2  0  0  0  0
 31 34  1  0  0  0  0
 32 31  1  0  0  0  0
 33 29  1  0  0  0  0
 35 32  1  0  0  0  0
 35 36  1  0  0  0  0
 36 37  1  0  0  0  0
M  END
>  <minimizedAffinity>
-5.11994028

>  <minimizedRMSD>
6.13580894

$$$$
