
 OpenBabel03262518473D

 26 27  0  0  0  0  0  0  0  0999 V2000
   38.0880   21.1700   31.9160 C   0  0  0  0  0  0  0  0  0  0  0  0
   36.9910   21.4540   32.6810 C   0  0  0  0  0  0  0  0  0  0  0  0
   37.2470   21.8630   33.9680 C   0  0  0  0  0  0  0  0  0  0  0  0
   38.4900   22.0040   34.5270 C   0  0  0  0  0  0  0  0  0  0  0  0
   39.5840   21.7050   33.7150 C   0  0  0  0  0  0  0  0  0  0  0  0
   39.4020   21.2830   32.3940 C   0  0  0  0  0  0  0  0  0  0  0  0
   36.4440   22.1010   34.6520 H   0  0  0  0  0  0  0  0  0  0  0  0
   40.5940   21.7940   34.0880 H   0  0  0  0  0  0  0  0  0  0  0  0
   40.2250   21.0470   31.7510 H   0  0  0  0  0  0  0  0  0  0  0  0
   39.9520   22.7400   37.8040 C   0  0  0  0  0  0  0  0  0  0  0  0
   38.8720   23.3360   38.4980 C   0  0  0  0  0  0  0  0  0  0  0  0
   37.6620   23.4680   37.8120 C   0  0  0  0  0  0  0  0  0  0  0  0
   37.6090   23.0180   36.5380 N   0  0  0  0  0  0  0  0  0  0  0  0
   38.6740   22.4500   35.9070 C   0  0  0  0  0  0  0  0  0  0  0  0
   39.8390   22.3040   36.5180 N   0  0  0  0  0  0  0  0  0  0  0  0
   40.9240   22.6110   38.2950 H   0  0  0  0  0  0  0  0  0  0  0  0
   38.9800   23.6710   39.5040 H   0  0  0  0  0  0  0  0  0  0  0  0
   36.8130   23.9170   38.3010 H   0  0  0  0  0  0  0  0  0  0  0  0
   37.8720   20.6460   30.2790 S   0  0  0  0  0  0  0  0  0  0  0  0
   38.9630   21.0780   29.3570 O   0  0  0  0  0  0  0  0  0  0  0  0
   37.7720   19.1370   30.3170 O   0  0  0  0  0  0  0  0  0  0  0  0
   36.6440   21.1000   29.8630 H   0  0  0  0  0  0  0  0  0  0  0  0
   35.3430   21.3420   32.0860 S   0  0  0  0  0  0  0  0  0  0  0  0
   34.6270   19.7180   32.0470 C   0  0  0  0  0  0  0  0  0  0  0  0
   35.3880   18.7190   32.8820 C   0  0  0  0  0  0  0  0  0  0  0  0
   36.3310   18.3600   32.4400 H   0  0  0  0  0  0  0  0  0  0  0  0
  1  6  2  0  0  0  0
  1  2  1  0  0  0  0
  2  3  2  0  0  0  0
  3  4  1  0  0  0  0
  3  7  1  0  0  0  0
  4 14  1  0  0  0  0
  5  8  1  0  0  0  0
  5  4  2  0  0  0  0
  6  5  1  0  0  0  0
  9  6  1  0  0  0  0
 10 16  1  0  0  0  0
 10 11  1  0  0  0  0
 11 17  1  0  0  0  0
 12 18  1  0  0  0  0
 12 11  2  0  0  0  0
 13 12  1  0  0  0  0
 14 15  1  0  0  0  0
 14 13  2  0  0  0  0
 15 10  2  0  0  0  0
 19 21  2  0  0  0  0
 19  1  1  0  0  0  0
 20 19  2  0  0  0  0
 22 19  1  0  0  0  0
 23  2  1  0  0  0  0
 24 23  1  0  0  0  0
 24 25  1  0  0  0  0
 26 25  1  0  0  0  0
M  END
>  <minimizedAffinity>
-4.20543528

>  <minimizedRMSD>
1.05173671

$$$$
