
 OpenBabel03262516443D

 32 35  0  0  0  0  0  0  0  0999 V2000
   37.7080   22.8870   33.6820 C   0  0  0  0  0  0  0  0  0  0  0  0
   37.5520   24.0590   32.9460 C   0  0  0  0  0  0  0  0  0  0  0  0
   38.3330   25.1560   33.2150 C   0  0  0  0  0  0  0  0  0  0  0  0
   39.2510   25.0060   34.2350 N   0  0  0  0  0  0  0  0  0  0  0  0
   39.3970   23.8810   34.9370 C   0  0  0  0  0  0  0  0  0  0  0  0
   38.6270   22.8290   34.6570 N   0  0  0  0  0  0  0  0  0  0  0  0
   36.7820   23.9880   32.1950 H   0  0  0  0  0  0  0  0  0  0  0  0
   40.1400   23.8410   35.7230 H   0  0  0  0  0  0  0  0  0  0  0  0
   36.9470   21.7120   33.4660 N   0  0  0  0  0  0  0  0  0  0  0  0
   36.1560   21.1870   34.4300 C   0  0  0  0  0  0  0  0  0  0  0  0
   35.5340   20.0740   33.9920 N   0  0  0  0  0  0  0  0  0  0  0  0
   35.9210   19.8650   32.7230 C   0  0  0  0  0  0  0  0  0  0  0  0
   35.6450   18.9090   31.7380 C   0  0  0  0  0  0  0  0  0  0  0  0
   36.2350   19.0110   30.5210 N   0  0  0  0  0  0  0  0  0  0  0  0
   37.0750   20.0280   30.2800 C   0  0  0  0  0  0  0  0  0  0  0  0
   37.3670   20.9720   31.2070 N   0  0  0  0  0  0  0  0  0  0  0  0
   36.7920   20.8850   32.4170 C   0  0  0  0  0  0  0  0  0  0  0  0
   34.7340   17.9110   32.1520 N   0  0  0  0  0  0  0  0  0  0  0  0
   35.9920   21.5510   35.4410 H   0  0  0  0  0  0  0  0  0  0  0  0
   37.5340   20.0810   29.2870 H   0  0  0  0  0  0  0  0  0  0  0  0
   35.1900   17.0050   32.3470 H   0  0  0  0  0  0  0  0  0  0  0  0
   33.6800   17.9380   32.2930 H   0  0  0  0  0  0  0  0  0  0  0  0
   38.1490   26.3700   32.4360 C   0  0  0  0  0  0  0  0  0  0  0  0
   37.1680   27.3320   32.7820 C   0  0  0  0  0  0  0  0  0  0  0  0
   37.3050   28.3070   31.8370 N   0  0  0  0  0  0  0  0  0  0  0  0
   38.2970   27.9290   31.0090 C   0  0  0  0  0  0  0  0  0  0  0  0
   38.8190   26.7600   31.3570 N   0  0  0  0  0  0  0  0  0  0  0  0
   36.4720   27.2940   33.6070 H   0  0  0  0  0  0  0  0  0  0  0  0
   38.5560   28.5990   30.1740 H   0  0  0  0  0  0  0  0  0  0  0  0
   39.9000   26.1360   30.6270 C   0  0  0  0  0  0  0  0  0  0  0  0
   39.4160   25.1180   29.6220 C   0  0  0  0  0  0  0  0  0  0  0  0
   38.3060   25.1550   29.5630 H   0  0  0  0  0  0  0  0  0  0  0  0
  1  6  1  0  0  0  0
  2  3  1  0  0  0  0
  2  1  2  0  0  0  0
  3  4  2  0  0  0  0
  4  5  1  0  0  0  0
  5  8  1  0  0  0  0
  6  5  2  0  0  0  0
  7  2  1  0  0  0  0
  9  1  1  0  0  0  0
  9 10  1  0  0  0  0
 10 19  1  0  0  0  0
 11 10  2  0  0  0  0
 12 11  1  0  0  0  0
 13 18  1  0  0  0  0
 13 12  2  0  0  0  0
 14 13  1  0  0  0  0
 15 14  2  0  0  0  0
 15 16  1  0  0  0  0
 16 17  2  0  0  0  0
 17 12  1  0  0  0  0
 17  9  1  0  0  0  0
 18 22  1  0  0  0  0
 18 21  1  0  0  0  0
 20 15  1  0  0  0  0
 23 24  2  0  0  0  0
 23  3  1  0  0  0  0
 24 28  1  0  0  0  0
 25 24  1  0  0  0  0
 26 27  1  0  0  0  0
 26 25  2  0  0  0  0
 27 23  1  0  0  0  0
 29 26  1  0  0  0  0
 30 27  1  0  0  0  0
 31 30  1  0  0  0  0
 32 31  1  0  0  0  0
M  END
>  <minimizedAffinity>
-4.69021082

>  <minimizedRMSD>
1.49609447

$$$$
