REMARK  Name = 
REMARK  4 active torsions:
REMARK  status: ('A' for Active; 'I' for Inactive)
REMARK    1  A    between atoms: C_1  and  C_6
REMARK    2  A    between atoms: N_5  and  C_12
REMARK    3  A    between atoms: C_14  and  C_15
REMARK    4  A    between atoms: C_14  and  N_27
REMARK                            x       y       z     vdW  Elec       q    Type
REMARK                         _______ _______ _______ _____ _____    ______ ____
ROOT
ATOM      1  C   UNL     1      37.871  23.696  33.502  0.00  0.00    +0.000 A 
ATOM      2  C   UNL     1      37.469  22.657  32.666  0.00  0.00    +0.000 A 
ATOM      3  N   UNL     1      37.482  21.566  33.482  0.00  0.00    +0.000 NA
ATOM      4  C   UNL     1      37.868  21.967  34.700  0.00  0.00    +0.000 A 
ATOM      5  N   UNL     1      38.110  23.273  34.729  0.00  0.00    +0.000 N 
ATOM      6  H   UNL     1      37.209  22.734  31.602  0.00  0.00    +0.000 HD
ATOM      7  H   UNL     1      37.944  21.239  35.509  0.00  0.00    +0.000 HD
ENDROOT
BRANCH   1   8
ATOM      8  C   UNL     1      38.020  25.085  33.077  0.00  0.00    +0.000 A 
ATOM      9  C   UNL     1      39.304  25.580  32.770  0.00  0.00    +0.000 A 
ATOM     10  C   UNL     1      39.392  26.933  32.356  0.00  0.00    +0.000 A 
ATOM     11  N   UNL     1      38.238  27.650  32.287  0.00  0.00    +0.000 NA
ATOM     12  C   UNL     1      37.031  27.131  32.593  0.00  0.00    +0.000 A 
ATOM     13  N   UNL     1      36.906  25.854  32.988  0.00  0.00    +0.000 NA
ATOM     14  H   UNL     1      40.134  24.909  32.866  0.00  0.00    +0.000 HD
ATOM     15  H   UNL     1      40.366  27.307  32.123  0.00  0.00    +0.000 HD
ATOM     16  H   UNL     1      36.244  27.837  32.481  0.00  0.00    +0.000 HD
ENDBRANCH   1   8
BRANCH   5  17
ATOM     17  C   UNL     1      38.534  23.949  35.899  0.00  0.00    +0.000 C 
ATOM     18  C   UNL     1      38.072  25.230  36.363  0.00  0.00    +0.000 C 
ATOM     19  C   UNL     1      37.556  23.915  37.029  0.00  0.00    +0.000 C 
ATOM     20  H   UNL     1      39.629  23.729  36.171  0.00  0.00    +0.000 HD
ATOM     21  H   UNL     1      38.712  25.892  36.990  0.00  0.00    +0.000 HD
ATOM     22  H   UNL     1      37.279  25.779  35.836  0.00  0.00    +0.000 HD
BRANCH  19  23
ATOM     23  C   UNL     1      38.118  23.767  38.426  0.00  0.00    +0.000 C 
ATOM     24  F   UNL     1      37.524  22.699  39.066  0.00  0.00    +0.000 F 
ATOM     25  F   UNL     1      39.514  23.348  38.303  0.00  0.00    +0.000 F 
ATOM     26  F   UNL     1      38.139  24.899  39.142  0.00  0.00    +0.000 F 
ENDBRANCH  19  23
BRANCH  19  27
ATOM     27  N   UNL     1      36.099  23.935  36.956  0.00  0.00    +0.000 NA
ATOM     28  H   UNL     1      35.773  24.232  37.900  0.00  0.00    +0.000 HD
ATOM     29  H   UNL     1      35.840  24.687  36.278  0.00  0.00    +0.000 HD
ENDBRANCH  19  27
ENDBRANCH   5  17
TORSDOF 4
