
 OpenBabel03262519533D

 37 40  0  0  1  0  0  0  0  0999 V2000
   42.2020   24.7300   35.3520 C   0  0  2  0  0  0  0  0  0  0  0  0
   40.9010   25.3970   35.0990 C   0  0  0  0  0  0  0  0  0  0  0  0
   41.7960   24.8710   33.9920 C   0  0  1  0  0  0  0  0  0  0  0  0
   42.9900   25.3660   35.7900 H   0  0  0  0  0  0  0  0  0  0  0  0
   40.0140   24.9400   35.4720 H   0  0  0  0  0  0  0  0  0  0  0  0
   40.8840   26.5210   35.2490 H   0  0  0  0  0  0  0  0  0  0  0  0
   41.2140   24.4900   33.2380 H   0  0  0  0  0  0  0  0  0  0  0  0
   42.5910   25.9740   33.2850 C   0  0  0  0  0  0  0  0  0  0  0  0
   43.8350   26.1710   33.8000 N   0  0  0  0  0  0  0  0  0  0  0  0
   44.5840   27.1740   33.2550 C   0  0  0  0  0  0  0  0  0  0  0  0
   44.1290   27.9570   32.2360 N   0  0  0  0  0  0  0  0  0  0  0  0
   42.9020   27.7130   31.7740 C   0  0  0  0  0  0  0  0  0  0  0  0
   42.4090   28.4830   30.7260 C   0  0  0  0  0  0  0  0  0  0  0  0
   41.1260   28.2130   30.2360 C   0  0  0  0  0  0  0  0  0  0  0  0
   40.8090   28.8470   29.4270 H   0  0  0  0  0  0  0  0  0  0  0  0
   40.3040   27.2010   30.7470 C   0  0  0  0  0  0  0  0  0  0  0  0
   39.3460   27.1070   30.2770 H   0  0  0  0  0  0  0  0  0  0  0  0
   40.8130   26.4500   31.7860 C   0  0  0  0  0  0  0  0  0  0  0  0
   42.0730   26.7110   32.2720 C   0  0  0  0  0  0  0  0  0  0  0  0
   42.0900   23.4220   36.1450 C   0  0  0  0  0  0  0  0  0  0  0  0
   41.8680   23.7380   37.2080 H   0  0  0  0  0  0  0  0  0  0  0  0
   43.0700   22.9040   36.2430 H   0  0  0  0  0  0  0  0  0  0  0  0
   40.9620   22.6710   35.6280 C   0  0  0  0  0  0  0  0  0  0  0  0
   40.9990   22.6030   34.5770 H   0  0  0  0  0  0  0  0  0  0  0  0
   41.2570   21.5830   35.8900 H   0  0  0  0  0  0  0  0  0  0  0  0
   37.5250   22.7770   36.6090 C   0  0  0  0  0  0  0  0  0  0  0  0
   38.6270   22.6250   35.7310 C   0  0  0  0  0  0  0  0  0  0  0  0
   39.7770   22.8250   36.3830 C   0  0  0  0  0  0  0  0  0  0  0  0
   39.8340   23.1360   37.7370 N   0  0  0  0  0  0  0  0  0  0  0  0
   38.7520   23.2610   38.4930 C   0  0  0  0  0  0  0  0  0  0  0  0
   37.5870   23.0790   37.9190 N   0  0  0  0  0  0  0  0  0  0  0  0
   36.4790   22.6540   36.2670 H   0  0  0  0  0  0  0  0  0  0  0  0
   38.9350   23.5040   39.5250 H   0  0  0  0  0  0  0  0  0  0  0  0
   38.2910   22.2920   34.3980 C   0  0  0  0  0  0  0  0  0  0  0  0
   38.5860   23.3360   33.4880 F   0  0  0  0  0  0  0  0  0  0  0  0
   37.0180   22.2600   33.9680 F   0  0  0  0  0  0  0  0  0  0  0  0
   39.1280   21.4160   33.7000 F   0  0  0  0  0  0  0  0  0  0  0  0
  1  4  1  1  0  0  0
  1 20  1  0  0  0  0
  2  6  1  0  0  0  0
  2  1  1  0  0  0  0
  2  5  1  0  0  0  0
  3  7  1  6  0  0  0
  3  2  1  0  0  0  0
  3  1  1  0  0  0  0
  8  9  1  0  0  0  0
  8  3  1  0  0  0  0
 10  9  2  0  0  0  0
 11 10  1  0  0  0  0
 12 11  2  0  0  0  0
 12 19  1  0  0  0  0
 13 12  1  0  0  0  0
 14 13  2  0  0  0  0
 14 16  1  0  0  0  0
 15 14  1  0  0  0  0
 16 18  2  0  0  0  0
 17 16  1  0  0  0  0
 18 19  1  0  0  0  0
 19  8  2  0  0  0  0
 20 22  1  0  0  0  0
 20 21  1  0  0  0  0
 23 25  1  0  0  0  0
 23 20  1  0  0  0  0
 23 28  1  0  0  0  0
 24 23  1  0  0  0  0
 26 31  1  0  0  0  0
 27 28  1  0  0  0  0
 27 26  2  0  0  0  0
 28 29  2  0  0  0  0
 29 30  1  0  0  0  0
 30 33  1  0  0  0  0
 31 30  2  0  0  0  0
 32 26  1  0  0  0  0
 34 27  1  0  0  0  0
 35 34  1  0  0  0  0
 36 34  1  0  0  0  0
 37 34  1  0  0  0  0
M  END
>  <minimizedAffinity>
-4.09593153

>  <minimizedRMSD>
8.10037041

$$$$
