
 OpenBabel03262516413D

 44 48  0  0  1  0  0  0  0  0999 V2000
   39.7180   23.0100   37.9390 C   0  0  0  0  0  0  0  0  0  0  0  0
   38.4330   23.2620   38.4390 C   0  0  0  0  0  0  0  0  0  0  0  0
   37.5270   23.8680   37.5870 C   0  0  0  0  0  0  0  0  0  0  0  0
   37.9370   24.1780   36.3290 N   0  0  0  0  0  0  0  0  0  0  0  0
   39.1900   23.9200   35.8750 C   0  0  0  0  0  0  0  0  0  0  0  0
   40.0730   23.3340   36.6940 N   0  0  0  0  0  0  0  0  0  0  0  0
   39.4780   24.3020   34.5320 N   0  0  0  0  0  0  0  0  0  0  0  0
   38.5290   23.9630   33.4970 C   0  0  0  0  0  0  0  0  0  0  0  0
   38.8410   24.6000   32.1760 C   0  0  0  0  0  0  0  0  0  0  0  0
   39.5660   25.8180   32.3910 N   0  0  0  0  0  0  0  0  0  0  0  0
   40.8960   25.4320   32.8740 C   0  0  0  0  0  0  0  0  0  0  0  0
   40.7580   25.0240   34.3330 C   0  0  2  0  0  0  0  0  0  0  0  0
   40.5100   22.5420   38.5100 H   0  0  0  0  0  0  0  0  0  0  0  0
   38.2140   22.9750   39.4580 H   0  0  0  0  0  0  0  0  0  0  0  0
   36.5270   24.0770   37.9410 H   0  0  0  0  0  0  0  0  0  0  0  0
   37.4890   24.1330   33.8350 H   0  0  0  0  0  0  0  0  0  0  0  0
   38.5920   22.8500   33.3490 H   0  0  0  0  0  0  0  0  0  0  0  0
   39.3540   23.9180   31.4570 H   0  0  0  0  0  0  0  0  0  0  0  0
   37.8630   24.8620   31.7110 H   0  0  0  0  0  0  0  0  0  0  0  0
   39.6740   26.3440   31.4920 H   0  0  0  0  0  0  0  0  0  0  0  0
   41.5980   26.2870   32.8280 H   0  0  0  0  0  0  0  0  0  0  0  0
   41.2210   24.5810   32.2570 H   0  0  0  0  0  0  0  0  0  0  0  0
   40.6740   25.9580   34.8970 H   0  0  0  0  0  0  0  0  0  0  0  0
   41.8880   24.2090   34.8030 C   0  0  0  0  0  0  0  0  0  0  0  0
   42.2040   23.0200   34.2070 C   0  0  0  0  0  0  0  0  0  0  0  0
   43.1990   22.1390   34.4800 C   0  0  0  0  0  0  0  0  0  0  0  0
   43.9980   22.5320   35.5270 C   0  0  0  0  0  0  0  0  0  0  0  0
   43.7190   23.7210   36.1640 C   0  0  0  0  0  0  0  0  0  0  0  0
   42.6960   24.5150   35.7980 N   0  0  0  0  0  0  0  0  0  0  0  0
   41.5580   22.7280   33.3750 H   0  0  0  0  0  0  0  0  0  0  0  0
   43.3500   21.2270   33.9370 H   0  0  0  0  0  0  0  0  0  0  0  0
   44.8750   21.9290   35.8150 H   0  0  0  0  0  0  0  0  0  0  0  0
   44.5140   24.3960   37.1420 C   0  0  1  0  0  0  0  0  0  0  0  0
   45.2020   24.9800   37.9870 N   0  0  0  0  0  0  0  0  0  0  0  0
   45.7790   25.4940   38.9360 C   0  0  0  0  0  0  0  0  0  0  0  0
   46.6750   26.0690   38.1260 N   0  0  0  0  0  0  0  0  0  0  0  0
   46.5640   25.8520   36.7790 C   0  0  0  0  0  0  0  0  0  0  0  0
   47.6100   26.4620   36.0250 C   0  0  0  0  0  0  0  0  0  0  0  0
   47.5970   26.2210   34.6810 C   0  0  0  0  0  0  0  0  0  0  0  0
   48.4120   26.7130   34.1760 H   0  0  0  0  0  0  0  0  0  0  0  0
   46.6830   25.4540   33.9950 C   0  0  0  0  0  0  0  0  0  0  0  0
   46.6840   25.2750   32.9660 H   0  0  0  0  0  0  0  0  0  0  0  0
   45.7420   24.9430   34.8710 C   0  0  0  0  0  0  0  0  0  0  0  0
   45.5110   25.0320   36.2890 C   0  0  0  0  0  0  0  0  0  0  0  0
  1  2  1  0  0  0  0
  1 13  1  0  0  0  0
  2 14  1  0  0  0  0
  3 15  1  0  0  0  0
  3  2  2  0  0  0  0
  4  3  1  0  0  0  0
  5  4  2  0  0  0  0
  5  6  1  0  0  0  0
  6  1  2  0  0  0  0
  7  5  1  0  0  0  0
  8 16  1  0  0  0  0
  8  7  1  0  0  0  0
  9 10  1  0  0  0  0
  9  8  1  0  0  0  0
 10 11  1  0  0  0  0
 11 12  1  0  0  0  0
 12  7  1  0  0  0  0
 12 24  1  0  0  0  0
 12 23  1  1  0  0  0
 17  8  1  0  0  0  0
 18  9  1  0  0  0  0
 19  9  1  0  0  0  0
 20 10  1  0  0  0  0
 21 11  1  0  0  0  0
 22 11  1  0  0  0  0
 24 29  1  0  0  0  0
 25 26  1  0  0  0  0
 25 24  2  0  0  0  0
 26 27  2  0  0  0  0
 27 32  1  0  0  0  0
 27 28  1  0  0  0  0
 29 28  2  0  0  0  0
 30 25  1  0  0  0  0
 31 26  1  0  0  0  0
 33 28  1  1  0  0  0
 33 34  1  0  0  0  0
 34 35  1  0  0  0  0
 36 35  1  0  0  0  0
 37 36  1  0  0  0  0
 38 37  2  0  0  0  0
 39 38  1  0  0  0  0
 40 39  1  0  0  0  0
 41 39  2  0  0  0  0
 41 43  1  0  0  0  0
 42 41  1  0  0  0  0
 43 44  2  0  0  0  0
 44 37  1  0  0  0  0
 44 33  1  0  0  0  0
M  END
>  <minimizedAffinity>
-5.74959898

>  <minimizedRMSD>
5.54606533

$$$$
