
 OpenBabel03262519413D

 44 48  0  0  1  0  0  0  0  0999 V2000
   38.5180   25.8190   33.7860 N   0  0  0  0  0  0  0  0  0  0  0  0
   37.4950   26.7040   33.2690 C   0  0  0  0  0  0  0  0  0  0  0  0
   38.2220   27.7340   32.4740 C   0  0  0  0  0  0  0  0  0  0  0  0
   39.6760   27.3120   32.5620 C   0  0  0  0  0  0  0  0  0  0  0  0
   39.4860   25.7790   32.7390 C   0  0  2  0  0  0  0  0  0  0  0  0
   36.8130   27.0880   34.0340 H   0  0  0  0  0  0  0  0  0  0  0  0
   36.8990   26.0820   32.5580 H   0  0  0  0  0  0  0  0  0  0  0  0
   37.9690   27.7680   31.4030 H   0  0  0  0  0  0  0  0  0  0  0  0
   38.1230   28.7470   32.9190 H   0  0  0  0  0  0  0  0  0  0  0  0
   40.0920   27.6950   33.5060 H   0  0  0  0  0  0  0  0  0  0  0  0
   40.2630   27.5270   31.6720 H   0  0  0  0  0  0  0  0  0  0  0  0
   40.4800   25.4070   33.0520 H   0  0  0  0  0  0  0  0  0  0  0  0
   38.0260   24.4840   33.9680 C   0  0  0  0  0  0  0  0  0  0  0  0
   37.0140   24.4330   33.4940 H   0  0  0  0  0  0  0  0  0  0  0  0
   38.6880   23.7450   33.4890 H   0  0  0  0  0  0  0  0  0  0  0  0
   37.9730   24.6990   37.7530 C   0  0  0  0  0  0  0  0  0  0  0  0
   38.0580   25.1040   36.4290 C   0  0  0  0  0  0  0  0  0  0  0  0
   37.9470   24.1160   35.4170 C   0  0  0  0  0  0  0  0  0  0  0  0
   37.7610   22.8230   35.8080 N   0  0  0  0  0  0  0  0  0  0  0  0
   37.6870   22.4930   37.1110 C   0  0  0  0  0  0  0  0  0  0  0  0
   37.7930   23.4260   38.0660 N   0  0  0  0  0  0  0  0  0  0  0  0
   38.0780   25.5680   38.3880 H   0  0  0  0  0  0  0  0  0  0  0  0
   38.2040   26.1140   36.0360 H   0  0  0  0  0  0  0  0  0  0  0  0
   37.5390   21.5070   37.5230 H   0  0  0  0  0  0  0  0  0  0  0  0
   39.0160   25.1860   31.6000 O   0  0  0  0  0  0  0  0  0  0  0  0
   38.8170   23.8330   31.6960 C   0  0  2  0  0  0  0  0  0  0  0  0
   39.8480   22.9880   31.0040 C   0  0  0  0  0  0  0  0  0  0  0  0
   38.4320   23.0250   30.4950 C   0  0  1  0  0  0  0  0  0  0  0  0
   38.2820   23.5160   32.5970 H   0  0  0  0  0  0  0  0  0  0  0  0
   40.2350   22.0740   31.4990 H   0  0  0  0  0  0  0  0  0  0  0  0
   40.6090   23.4760   30.3610 H   0  0  0  0  0  0  0  0  0  0  0  0
   38.2280   23.6130   29.5790 H   0  0  0  0  0  0  0  0  0  0  0  0
   37.6990   21.7540   30.7340 C   0  0  0  0  0  0  0  0  0  0  0  0
   36.8180   21.6430   31.7740 N   0  0  0  0  0  0  0  0  0  0  0  0
   36.1070   20.5350   32.0280 C   0  0  0  0  0  3  0  0  0  0  0  0
   36.2060   19.4310   31.2690 N   0  0  0  0  0  0  0  0  0  0  0  0
   37.0560   19.4680   30.2270 C   0  0  0  0  0  0  0  0  0  0  0  0
   37.1670   18.3300   29.4600 C   0  0  0  0  0  3  0  0  0  0  0  0
   38.0380   18.3140   28.3900 C   0  0  0  0  0  0  0  0  0  0  0  0
   38.1320   17.4360   27.7900 H   0  0  0  0  0  0  0  0  0  0  0  0
   38.7600   19.4680   28.1510 C   0  0  0  0  0  0  0  0  0  0  0  0
   39.4290   19.4130   27.3160 H   0  0  0  0  0  0  0  0  0  0  0  0
   38.6580   20.6160   28.9110 C   0  0  0  0  0  3  0  0  0  0  0  0
   37.7830   20.6100   29.9720 C   0  0  0  0  0  0  0  0  0  0  0  0
  1 13  1  0  0  0  0
  2  1  1  0  0  0  0
  2  6  1  0  0  0  0
  3  4  1  0  0  0  0
  3  9  1  0  0  0  0
  3  2  1  0  0  0  0
  4  5  1  0  0  0  0
  4 10  1  0  0  0  0
  5 12  1  1  0  0  0
  5  1  1  0  0  0  0
  7  2  1  0  0  0  0
  8  3  1  0  0  0  0
 11  4  1  0  0  0  0
 13 18  1  0  0  0  0
 14 13  1  0  0  0  0
 15 13  1  0  0  0  0
 16 21  1  0  0  0  0
 16 22  1  0  0  0  0
 17 16  2  0  0  0  0
 18 19  2  0  0  0  0
 18 17  1  0  0  0  0
 19 20  1  0  0  0  0
 20 24  1  0  0  0  0
 20 21  2  0  0  0  0
 23 17  1  0  0  0  0
 25 26  1  0  0  0  0
 25  5  1  0  0  0  0
 26 29  1  1  0  0  0
 27 30  1  0  0  0  0
 27 26  1  0  0  0  0
 28 32  1  6  0  0  0
 28 33  1  0  0  0  0
 28 27  1  0  0  0  0
 28 26  1  0  0  0  0
 31 27  1  0  0  0  0
 33 34  1  0  0  0  0
 34 35  2  0  0  0  0
 36 35  1  0  0  0  0
 37 36  2  0  0  0  0
 38 37  1  0  0  0  0
 39 38  2  0  0  0  0
 40 39  1  0  0  0  0
 41 39  1  0  0  0  0
 41 43  2  0  0  0  0
 42 41  1  0  0  0  0
 43 44  1  0  0  0  0
 44 37  1  0  0  0  0
 44 33  2  0  0  0  0
M  END
>  <minimizedAffinity>
-3.89675856

>  <minimizedRMSD>
7.66923332

$$$$
