
 OpenBabel03262519573D

 35 39  0  0  1  0  0  0  0  0999 V2000
   39.5460   21.3710   33.1240 C   0  0  1  0  0  0  0  0  0  0  0  0
   40.7360   21.8680   33.7780 C   0  0  0  0  0  0  0  0  0  0  0  0
   39.6640   22.8770   33.3730 C   0  0  2  0  0  0  0  0  0  0  0  0
   38.7750   20.8510   33.7320 H   0  0  0  0  0  0  0  0  0  0  0  0
   41.6580   21.9520   33.1980 H   0  0  0  0  0  0  0  0  0  0  0  0
   40.8960   21.6290   34.8550 H   0  0  0  0  0  0  0  0  0  0  0  0
   39.8670   23.5550   32.5360 H   0  0  0  0  0  0  0  0  0  0  0  0
   38.9380   23.4080   34.5540 C   0  0  0  0  0  0  0  0  0  0  0  0
   38.3190   22.3990   35.2340 N   0  0  0  0  0  0  0  0  0  0  0  0
   37.6400   22.7030   36.3790 C   0  0  0  0  0  3  0  0  0  0  0  0
   37.5560   23.9750   36.8680 N   0  0  0  0  0  0  0  0  0  0  0  0
   38.1640   24.9680   36.1970 C   0  0  0  0  0  0  0  0  0  0  0  0
   38.1430   26.2950   36.5790 C   0  0  0  0  0  3  0  0  0  0  0  0
   38.7850   27.2570   35.8250 C   0  0  0  0  0  0  0  0  0  0  0  0
   38.7630   28.3060   36.1350 H   0  0  0  0  0  0  0  0  0  0  0  0
   39.4800   26.9460   34.6510 C   0  0  0  0  0  0  0  0  0  0  0  0
   39.9550   27.7490   34.1150 H   0  0  0  0  0  0  0  0  0  0  0  0
   39.4980   25.6200   34.2720 C   0  0  0  0  0  3  0  0  0  0  0  0
   38.8560   24.6920   35.0400 C   0  0  0  0  0  0  0  0  0  0  0  0
   38.4560   20.7290   30.9430 C   0  0  0  0  0  0  0  0  0  0  0  0
   38.8540   20.5120   29.6290 C   0  0  0  0  0  0  0  0  0  0  0  0
   40.1910   20.7310   29.6520 N   0  0  0  0  0  0  0  0  0  0  0  0
   40.5320   21.0510   30.8910 C   0  0  0  0  0  0  0  0  0  0  0  0
   39.4750   21.0600   31.7210 N   0  0  0  0  0  0  0  0  0  0  0  0
   38.2180   20.2340   28.8080 H   0  0  0  0  0  0  0  0  0  0  0  0
   41.5810   21.2610   31.0910 H   0  0  0  0  0  0  0  0  0  0  0  0
   37.0830   20.6130   31.4250 C   0  0  0  0  0  0  0  0  0  0  0  0
   36.3400   21.7570   31.7320 C   0  0  0  0  0  0  0  0  0  0  0  0
   35.0250   21.6160   32.1920 C   0  0  0  0  0  0  0  0  0  0  0  0
   34.5490   20.3680   32.3120 N   0  0  0  0  0  0  0  0  0  0  0  0
   35.2780   19.2670   32.0120 C   0  0  0  0  0  0  0  0  0  0  0  0
   36.5400   19.3870   31.5700 N   0  0  0  0  0  0  0  0  0  0  0  0
   36.7550   22.7500   31.6240 H   0  0  0  0  0  0  0  0  0  0  0  0
   34.4110   22.4850   32.4430 H   0  0  0  0  0  0  0  0  0  0  0  0
   34.8580   18.2780   32.1230 H   0  0  0  0  0  0  0  0  0  0  0  0
  1  3  1  0  0  0  0
  1  4  1  1  0  0  0
  1  2  1  0  0  0  0
  2  6  1  0  0  0  0
  3  7  1  6  0  0  0
  3  2  1  0  0  0  0
  3  8  1  0  0  0  0
  5  2  1  0  0  0  0
  8 19  2  0  0  0  0
  8  9  1  0  0  0  0
  9 10  2  0  0  0  0
 10 11  1  0  0  0  0
 12 13  1  0  0  0  0
 12 11  2  0  0  0  0
 14 15  1  0  0  0  0
 14 13  2  0  0  0  0
 16 14  1  0  0  0  0
 17 16  1  0  0  0  0
 18 16  2  0  0  0  0
 18 19  1  0  0  0  0
 19 12  1  0  0  0  0
 20 27  1  0  0  0  0
 20 24  1  0  0  0  0
 21 22  1  0  0  0  0
 21 20  2  0  0  0  0
 22 23  2  0  0  0  0
 23 26  1  0  0  0  0
 23 24  1  0  0  0  0
 24  1  1  0  0  0  0
 25 21  1  0  0  0  0
 27 32  2  0  0  0  0
 27 28  1  0  0  0  0
 28 29  2  0  0  0  0
 29 30  1  0  0  0  0
 29 34  1  0  0  0  0
 31 35  1  0  0  0  0
 31 30  2  0  0  0  0
 32 31  1  0  0  0  0
 33 28  1  0  0  0  0
M  END
>  <minimizedAffinity>
-5.03678608

>  <minimizedRMSD>
7.09495544

$$$$
