
 OpenBabel03262519253D

 48 54  0  0  0  0  0  0  0  0999 V2000
   38.4520   24.2780   32.1180 C   0  0  0  0  0  0  0  0  0  0  0  0
   38.8040   23.1030   32.7760 C   0  0  0  0  0  0  0  0  0  0  0  0
   37.8940   22.0620   32.9810 C   0  0  0  0  0  0  0  0  0  0  0  0
   36.5890   22.1960   32.5150 C   0  0  0  0  0  0  0  0  0  0  0  0
   36.2160   23.3420   31.8620 C   0  0  0  0  0  0  0  0  0  0  0  0
   34.9430   23.4720   31.3870 C   0  0  0  0  0  0  0  0  0  0  0  0
   34.5240   24.6010   30.7030 C   0  0  0  0  0  0  0  0  0  0  0  0
   35.4650   25.6180   30.5130 C   0  0  0  0  0  0  0  0  0  0  0  0
   36.7460   25.4450   31.0140 C   0  0  0  0  0  0  0  0  0  0  0  0
   37.1520   24.3330   31.6870 C   0  0  0  0  0  0  0  0  0  0  0  0
   39.8420   23.0510   33.1180 H   0  0  0  0  0  0  0  0  0  0  0  0
   38.1870   21.1720   33.4900 H   0  0  0  0  0  0  0  0  0  0  0  0
   35.8840   21.4020   32.6670 H   0  0  0  0  0  0  0  0  0  0  0  0
   34.2650   22.6350   31.5710 H   0  0  0  0  0  0  0  0  0  0  0  0
   33.4820   24.5610   30.3860 H   0  0  0  0  0  0  0  0  0  0  0  0
   34.9640   26.4020   29.9680 H   0  0  0  0  0  0  0  0  0  0  0  0
   37.3750   26.7190   30.7050 C   0  0  0  0  0  0  0  0  0  0  0  0
   38.3700   27.1510   29.9260 N   0  0  0  0  0  0  0  0  0  0  0  0
   38.8030   28.3850   29.7540 C   0  0  0  0  0  3  0  0  0  0  0  0
   38.2240   29.4100   30.4120 N   0  0  0  0  0  0  0  0  0  0  0  0
   37.2020   29.1450   31.2380 C   0  0  0  0  0  0  0  0  0  0  0  0
   36.6040   30.1950   31.8810 C   0  0  0  0  0  3  0  0  0  0  0  0
   35.5420   29.8840   32.6940 C   0  0  0  0  0  0  0  0  0  0  0  0
   35.0370   30.6940   33.2350 H   0  0  0  0  0  0  0  0  0  0  0  0
   35.0370   28.6250   32.9160 C   0  0  0  0  0  0  0  0  0  0  0  0
   34.1960   28.4180   33.5570 H   0  0  0  0  0  0  0  0  0  0  0  0
   35.6980   27.6010   32.2280 C   0  0  0  0  0  3  0  0  0  0  0  0
   36.7790   27.8180   31.3870 C   0  0  0  0  0  0  0  0  0  0  0  0
   39.4230   25.3140   31.9310 C   0  0  0  0  0  0  0  0  0  0  0  0
   39.6730   26.3120   32.8920 C   0  0  0  0  0  0  0  0  0  0  0  0
   40.6480   27.2760   32.6120 C   0  0  0  0  0  0  0  0  0  0  0  0
   41.3200   27.2170   31.4280 N   0  0  0  0  0  0  0  0  0  0  0  0
   41.0640   26.2460   30.5240 C   0  0  0  0  0  0  0  0  0  0  0  0
   40.1520   25.3440   30.7860 N   0  0  0  0  0  0  0  0  0  0  0  0
   40.8790   28.0760   33.3370 H   0  0  0  0  0  0  0  0  0  0  0  0
   41.5900   26.1910   29.5780 H   0  0  0  0  0  0  0  0  0  0  0  0
   38.9770   26.3030   34.0980 N   0  0  0  0  0  0  0  0  0  0  0  0
   38.0600   27.2050   34.4890 C   0  0  0  0  0  0  0  0  0  0  0  0
   37.5670   26.9160   35.7120 N   0  0  0  0  0  0  0  0  0  0  0  0
   38.1950   25.7820   36.1140 C   0  0  0  0  0  0  0  0  0  0  0  0
   38.1290   25.0060   37.2410 C   0  0  0  0  0  0  0  0  0  0  0  0
   38.8600   23.8960   37.4370 N   0  0  0  0  0  0  0  0  0  0  0  0
   39.7140   23.5590   36.4160 C   0  0  0  0  0  0  0  0  0  0  0  0
   39.7710   24.3190   35.3260 N   0  0  0  0  0  0  0  0  0  0  0  0
   39.0690   25.4160   35.0970 C   0  0  0  0  0  0  0  0  0  0  0  0
   37.6410   28.0830   34.0620 H   0  0  0  0  0  0  0  0  0  0  0  0
   37.4600   25.2610   38.0660 H   0  0  0  0  0  0  0  0  0  0  0  0
   40.4030   22.7180   36.3210 H   0  0  0  0  0  0  0  0  0  0  0  0
  1  2  1  0  0  0  0
  2  3  2  0  0  0  0
  2 11  1  0  0  0  0
  3 12  1  0  0  0  0
  4 13  1  0  0  0  0
  4  3  1  0  0  0  0
  5  4  2  0  0  0  0
  6 14  1  0  0  0  0
  6  5  1  0  0  0  0
  7  6  2  0  0  0  0
  8  7  1  0  0  0  0
  8  9  2  0  0  0  0
  9 10  1  0  0  0  0
 10  5  1  0  0  0  0
 10  1  2  0  0  0  0
 15  7  1  0  0  0  0
 16  8  1  0  0  0  0
 17  9  1  0  0  0  0
 17 28  1  0  0  0  0
 18 17  2  0  0  0  0
 19 18  1  0  0  0  0
 19 20  2  0  0  0  0
 20 21  1  0  0  0  0
 21 28  2  0  0  0  0
 21 22  1  0  0  0  0
 22 23  2  0  0  0  0
 23 25  1  0  0  0  0
 23 24  1  0  0  0  0
 25 26  1  0  0  0  0
 27 25  2  0  0  0  0
 28 27  1  0  0  0  0
 29  1  1  0  0  0  0
 29 30  1  0  0  0  0
 30 37  1  0  0  0  0
 31 30  2  0  0  0  0
 31 35  1  0  0  0  0
 32 31  1  0  0  0  0
 33 34  1  0  0  0  0
 33 32  2  0  0  0  0
 34 29  2  0  0  0  0
 36 33  1  0  0  0  0
 37 38  1  0  0  0  0
 37 45  1  0  0  0  0
 38 39  2  0  0  0  0
 39 40  1  0  0  0  0
 40 41  1  0  0  0  0
 41 42  2  0  0  0  0
 41 47  1  0  0  0  0
 43 42  1  0  0  0  0
 44 43  2  0  0  0  0
 45 44  1  0  0  0  0
 45 40  2  0  0  0  0
 46 38  1  0  0  0  0
 48 43  1  0  0  0  0
M  END
>  <minimizedAffinity>
-5.30095816

>  <minimizedRMSD>
1.44128025

$$$$
