
 OpenBabel03262519563D

 35 39  0  0  1  0  0  0  0  0999 V2000
   38.4510   23.5300   32.4280 C   0  0  1  0  0  0  0  0  0  0  0  0
   39.6800   24.2550   32.1920 C   0  0  0  0  0  0  0  0  0  0  0  0
   38.9760   24.4520   33.5320 C   0  0  2  0  0  0  0  0  0  0  0  0
   38.5010   22.4440   32.6560 H   0  0  0  0  0  0  0  0  0  0  0  0
   39.6540   25.1370   31.5490 H   0  0  0  0  0  0  0  0  0  0  0  0
   40.6370   23.6850   32.1440 H   0  0  0  0  0  0  0  0  0  0  0  0
   38.4770   25.4070   33.7300 H   0  0  0  0  0  0  0  0  0  0  0  0
   39.7150   23.7960   34.6400 C   0  0  0  0  0  0  0  0  0  0  0  0
   40.9360   23.3570   34.2140 N   0  0  0  0  0  0  0  0  0  0  0  0
   41.7720   22.7680   35.1200 C   0  0  0  0  0  0  0  0  0  0  0  0
   41.4330   22.6000   36.4300 N   0  0  0  0  0  0  0  0  0  0  0  0
   40.2310   23.0310   36.8490 C   0  0  0  0  0  0  0  0  0  0  0  0
   39.7660   22.9090   38.1440 C   0  0  0  0  0  0  0  0  0  0  0  0
   38.5100   23.3680   38.4900 C   0  0  0  0  0  0  0  0  0  0  0  0
   38.1500   23.2680   39.5180 H   0  0  0  0  0  0  0  0  0  0  0  0
   37.6530   23.9700   37.5630 C   0  0  0  0  0  0  0  0  0  0  0  0
   36.6880   24.3030   37.9040 H   0  0  0  0  0  0  0  0  0  0  0  0
   38.1220   24.0900   36.2700 C   0  0  0  0  0  0  0  0  0  0  0  0
   39.3670   23.6280   35.9600 C   0  0  0  0  0  0  0  0  0  0  0  0
   36.0550   23.2800   31.6840 C   0  0  0  0  0  0  0  0  0  0  0  0
   35.0410   24.1060   31.2150 C   0  0  0  0  0  0  0  0  0  0  0  0
   35.6050   25.3380   31.1970 N   0  0  0  0  0  0  0  0  0  0  0  0
   36.8530   25.2230   31.6260 C   0  0  0  0  0  0  0  0  0  0  0  0
   37.1660   23.9540   31.9380 N   0  0  0  0  0  0  0  0  0  0  0  0
   34.0470   23.8030   30.9390 H   0  0  0  0  0  0  0  0  0  0  0  0
   37.4590   26.1260   31.6750 H   0  0  0  0  0  0  0  0  0  0  0  0
   35.9280   21.8390   31.8800 C   0  0  0  0  0  0  0  0  0  0  0  0
   35.5850   21.3210   33.1330 C   0  0  0  0  0  0  0  0  0  0  0  0
   35.4700   19.9350   33.2930 C   0  0  0  0  0  0  0  0  0  0  0  0
   35.6990   19.1730   32.2130 N   0  0  0  0  0  0  0  0  0  0  0  0
   36.0300   19.6850   31.0040 C   0  0  0  0  0  0  0  0  0  0  0  0
   36.1440   21.0120   30.8360 N   0  0  0  0  0  0  0  0  0  0  0  0
   35.4080   21.9650   33.9850 H   0  0  0  0  0  0  0  0  0  0  0  0
   35.2040   19.4910   34.2560 H   0  0  0  0  0  0  0  0  0  0  0  0
   36.2060   19.0380   30.1580 H   0  0  0  0  0  0  0  0  0  0  0  0
  1  4  1  1  0  0  0
  1  3  1  0  0  0  0
  2  1  1  0  0  0  0
  2  3  1  0  0  0  0
  3  7  1  1  0  0  0
  3  8  1  0  0  0  0
  5  2  1  0  0  0  0
  6  2  1  0  0  0  0
  8 19  1  0  0  0  0
  9  8  2  0  0  0  0
  9 10  1  0  0  0  0
 10 11  2  0  0  0  0
 11 12  1  0  0  0  0
 12 13  1  0  0  0  0
 13 14  2  0  0  0  0
 14 15  1  0  0  0  0
 16 17  1  0  0  0  0
 16 14  1  0  0  0  0
 18 16  2  0  0  0  0
 19 18  1  0  0  0  0
 19 12  2  0  0  0  0
 20 27  1  0  0  0  0
 20 24  1  0  0  0  0
 21 20  2  0  0  0  0
 22 21  1  0  0  0  0
 22 23  2  0  0  0  0
 23 26  1  0  0  0  0
 23 24  1  0  0  0  0
 24  1  1  0  0  0  0
 25 21  1  0  0  0  0
 27 28  1  0  0  0  0
 28 29  2  0  0  0  0
 28 33  1  0  0  0  0
 29 34  1  0  0  0  0
 30 29  1  0  0  0  0
 31 30  2  0  0  0  0
 32 31  1  0  0  0  0
 32 27  2  0  0  0  0
 35 31  1  0  0  0  0
M  END
>  <minimizedAffinity>
-5.67245245

>  <minimizedRMSD>
6.95173168

$$$$
