
     RDKit          3D

 36 38  0  0  0  0  0  0  0  0999 V2000
   37.9003   25.6420   34.3678 N   0  0  0  0  0  0  0  0  0  0  0  0
   37.3737   25.3286   33.0706 C   0  0  0  0  0  0  0  0  0  0  0  0
   36.7393   26.5947   32.5730 C   0  0  0  0  0  0  0  0  0  0  0  0
   37.0243   27.6205   33.6523 C   0  0  0  0  0  0  0  0  0  0  0  0
   38.3353   27.0241   34.2194 C   0  0  2  0  0  0  0  0  0  0  0  0
   39.0607   24.8860   34.7247 C   0  0  0  0  0  0  0  0  0  0  0  0
   37.9411   24.1885   38.2698 C   0  0  0  0  0  0  0  0  0  0  0  0
   37.9820   24.7578   36.9975 C   0  0  0  0  0  0  0  0  0  0  0  0
   38.9650   24.3182   36.0955 C   0  0  0  0  0  0  0  0  0  0  0  0
   39.8239   23.3497   36.5355 N   0  0  0  0  0  0  0  0  0  0  0  0
   39.7534   22.8271   37.7647 C   0  0  0  0  0  0  0  0  0  0  0  0
   38.8058   23.2519   38.6319 N   0  0  0  0  0  0  0  0  0  0  0  0
   39.3711   27.1748   33.3512 O   0  0  0  0  0  0  0  0  0  0  0  0
   36.6940   24.4587   33.0695 H   0  0  0  0  0  0  0  0  0  0  0  0
   38.2522   25.1121   32.4176 H   0  0  0  0  0  0  0  0  0  0  0  0
   35.6449   26.4316   32.5913 H   0  0  0  0  0  0  0  0  0  0  0  0
   37.1321   26.9249   31.5906 H   0  0  0  0  0  0  0  0  0  0  0  0
   37.3024   28.5822   33.1863 H   0  0  0  0  0  0  0  0  0  0  0  0
   36.2602   27.6947   34.4227 H   0  0  0  0  0  0  0  0  0  0  0  0
   38.4548   27.5096   35.1998 H   0  0  0  0  0  0  0  0  0  0  0  0
   39.0844   23.9845   34.0463 H   0  0  0  0  0  0  0  0  0  0  0  0
   40.0160   25.3931   34.5382 H   0  0  0  0  0  0  0  0  0  0  0  0
   37.1843   24.5285   38.9608 H   0  0  0  0  0  0  0  0  0  0  0  0
   37.2870   25.5141   36.6991 H   0  0  0  0  0  0  0  0  0  0  0  0
   40.4581   22.0631   38.0612 H   0  0  0  0  0  0  0  0  0  0  0  0
   40.5266   27.8746   33.6104 C   0  0  0  0  0  0  0  0  0  0  0  0
   41.0720   28.9692   32.9715 C   0  0  0  0  0  0  0  0  0  0  0  0
   42.2442   29.5340   33.3788 C   0  0  0  0  0  0  0  0  0  0  0  0
   42.6305   30.3884   32.8475 H   0  0  0  0  0  0  0  0  0  0  0  0
   42.9070   28.9831   34.4758 C   0  0  0  0  0  0  0  0  0  0  0  0
   42.4036   27.8886   35.1495 C   0  0  0  0  0  0  0  0  0  0  0  0
   42.9575   27.4989   35.9959 H   0  0  0  0  0  0  0  0  0  0  0  0
   41.2131   27.3445   34.7063 C   0  0  0  0  0  0  0  0  0  0  0  0
   40.4787   29.3062   32.1449 H   0  0  0  0  0  0  0  0  0  0  0  0
   43.8408   29.4142   34.8191 H   0  0  0  0  0  0  0  0  0  0  0  0
   40.8948   26.4851   35.2990 H   0  0  0  0  0  0  0  0  0  0  0  0
  1  6  1  0
  2  1  1  0
  3  2  1  0
  3  4  1  0
  4  5  1  0
  5  1  1  0
  6  9  1  0
  7 12  2  0
  8  7  1  0
  9 10  1  0
  9  8  2  0
 10 11  2  0
 11 12  1  0
 13  5  1  0
  2 14  1  0
  2 15  1  0
  3 16  1  0
  3 17  1  0
  4 18  1  0
  4 19  1  0
  5 20  1  1
  6 21  1  0
  6 22  1  0
  7 23  1  0
  8 24  1  0
 11 25  1  0
 26 27  2  0
 27 28  1  0
 28 29  1  0
 28 30  2  0
 30 31  1  0
 31 32  1  0
 31 33  2  0
 33 26  1  0
 27 34  1  0
 30 35  1  0
 33 36  1  0
 13 26  1  0
M  ISO  8  14  13  15  13  16  13  17  13  18  13  19  13  20  13  21   8
M  ISO  6  22   8  23  14  24  14  25  14  29  16  32  16
M  END
>  <DihAtoms>  (1) 
4,12,25,26

>  <DihDeg>  (1) 
0.0001527060340899308

$$$$
