
 OpenBabel03262519293D

 36 40  0  0  0  0  0  0  0  0999 V2000
   39.7600   22.8580   37.3960 C   0  0  0  0  0  0  0  0  0  0  0  0
   38.9400   23.2840   38.4270 C   0  0  0  0  0  0  0  0  0  0  0  0
   37.7950   24.0200   38.0510 C   0  0  0  0  0  0  0  0  0  0  0  0
   37.5560   24.2690   36.7470 N   0  0  0  0  0  0  0  0  0  0  0  0
   38.3950   23.8280   35.7560 C   0  0  0  0  0  0  0  0  0  0  0  0
   39.4460   23.1490   36.1490 N   0  0  0  0  0  0  0  0  0  0  0  0
   39.2070   23.0400   39.4420 H   0  0  0  0  0  0  0  0  0  0  0  0
   37.1560   24.3530   38.8300 H   0  0  0  0  0  0  0  0  0  0  0  0
   37.9030   24.2340   34.4470 C   0  0  0  0  0  0  0  0  0  0  0  0
   37.7870   23.4080   33.3950 N   0  0  0  0  0  0  0  0  0  0  0  0
   37.3370   23.7670   32.1880 C   0  0  0  0  0  0  0  0  0  0  0  0
   36.9490   25.0230   31.9090 N   0  0  0  0  0  0  0  0  0  0  0  0
   37.0310   25.9220   32.9050 C   0  0  0  0  0  0  0  0  0  0  0  0
   36.6330   27.2090   32.6210 C   0  0  0  0  0  0  0  0  0  0  0  0
   36.6910   28.1780   33.5990 C   0  0  0  0  0  0  0  0  0  0  0  0
   36.3650   29.1660   33.3080 H   0  0  0  0  0  0  0  0  0  0  0  0
   37.1590   27.8110   34.8570 C   0  0  0  0  0  0  0  0  0  0  0  0
   37.1930   28.5920   35.6000 H   0  0  0  0  0  0  0  0  0  0  0  0
   37.5410   26.5070   35.0740 C   0  0  0  0  0  0  0  0  0  0  0  0
   37.5000   25.5080   34.1300 C   0  0  0  0  0  0  0  0  0  0  0  0
   40.8690   22.1480   37.7010 O   0  0  0  0  0  0  0  0  0  0  0  0
   42.0730   22.1460   37.0430 C   0  0  0  0  0  0  0  0  0  0  0  0
   42.6830   23.2490   36.4610 C   0  0  0  0  0  0  0  0  0  0  0  0
   43.8420   22.9060   35.9070 N   0  0  0  0  0  0  0  0  0  0  0  0
   44.0660   21.5750   36.0850 C   0  0  0  0  0  0  0  0  0  0  0  0
   45.0860   20.7200   35.7190 C   0  0  0  0  0  0  0  0  0  0  0  0
   45.0210   19.3810   36.0560 C   0  0  0  0  0  0  0  0  0  0  0  0
   43.9100   18.9030   36.7680 C   0  0  0  0  0  0  0  0  0  0  0  0
   42.8980   19.7860   37.1230 C   0  0  0  0  0  0  0  0  0  0  0  0
   42.9720   21.1230   36.7830 C   0  0  0  0  0  0  0  0  0  0  0  0
   42.3190   24.2770   36.4290 H   0  0  0  0  0  0  0  0  0  0  0  0
   44.5370   23.5210   35.3880 H   0  0  0  0  0  0  0  0  0  0  0  0
   45.9180   21.1190   35.1760 H   0  0  0  0  0  0  0  0  0  0  0  0
   45.8480   18.7520   35.7450 H   0  0  0  0  0  0  0  0  0  0  0  0
   43.8990   17.8460   37.0110 H   0  0  0  0  0  0  0  0  0  0  0  0
   42.0540   19.3980   37.6690 H   0  0  0  0  0  0  0  0  0  0  0  0
  1 21  1  0  0  0  0
  1  2  1  0  0  0  0
  2  7  1  0  0  0  0
  3  2  2  0  0  0  0
  3  8  1  0  0  0  0
  4  3  1  0  0  0  0
  5  6  1  0  0  0  0
  5  4  2  0  0  0  0
  6  1  2  0  0  0  0
  9  5  1  0  0  0  0
 10  9  2  0  0  0  0
 11 10  1  0  0  0  0
 12 11  2  0  0  0  0
 12 13  1  0  0  0  0
 13 20  1  0  0  0  0
 14 13  2  0  0  0  0
 14 15  1  0  0  0  0
 15 17  2  0  0  0  0
 16 15  1  0  0  0  0
 17 19  1  0  0  0  0
 17 18  1  0  0  0  0
 20  9  1  0  0  0  0
 20 19  2  0  0  0  0
 22 21  1  0  0  0  0
 23 22  2  0  0  0  0
 24 25  1  0  0  0  0
 24 23  1  0  0  0  0
 25 30  1  0  0  0  0
 26 27  1  0  0  0  0
 26 25  2  0  0  0  0
 27 28  2  0  0  0  0
 28 35  1  0  0  0  0
 28 29  1  0  0  0  0
 29 36  1  0  0  0  0
 30 22  1  0  0  0  0
 30 29  2  0  0  0  0
 31 23  1  0  0  0  0
 32 24  1  0  0  0  0
 33 26  1  0  0  0  0
 34 27  1  0  0  0  0
M  END
>  <minimizedAffinity>
-6.20612097

>  <minimizedRMSD>
0.75294894

$$$$
