
 OpenBabel03262518323D

 39 43  0  0  0  0  0  0  0  0999 V2000
   37.4530   27.2570   34.4020 C   0  0  0  0  0  0  0  0  0  0  0  0
   38.2040   27.1040   33.2610 C   0  0  0  0  0  0  0  0  0  0  0  0
   37.7620   27.7480   32.1090 C   0  0  0  0  0  0  0  0  0  0  0  0
   36.6370   28.4730   32.1900 N   0  0  0  0  0  0  0  0  0  0  0  0
   35.9240   28.6140   33.2840 C   0  0  0  0  0  0  0  0  0  0  0  0
   36.3350   28.0020   34.3970 N   0  0  0  0  0  0  0  0  0  0  0  0
   39.1090   26.5220   33.1940 H   0  0  0  0  0  0  0  0  0  0  0  0
   38.2590   27.7080   31.1530 H   0  0  0  0  0  0  0  0  0  0  0  0
   34.6750   29.3660   33.5620 C   0  0  0  0  0  0  0  0  0  0  0  0
   33.4970   29.1470   32.9530 N   0  0  0  0  0  0  0  0  0  0  0  0
   32.3950   29.8420   33.2300 C   0  0  0  0  0  0  0  0  0  0  0  0
   32.3480   30.8180   34.1320 N   0  0  0  0  0  0  0  0  0  0  0  0
   33.4880   31.1090   34.7960 C   0  0  0  0  0  0  0  0  0  0  0  0
   33.4300   32.1110   35.7220 C   0  0  0  0  0  0  0  0  0  0  0  0
   34.5610   32.4510   36.4320 C   0  0  0  0  0  0  0  0  0  0  0  0
   34.4560   33.2500   37.1490 H   0  0  0  0  0  0  0  0  0  0  0  0
   35.7280   31.7450   36.1660 C   0  0  0  0  0  0  0  0  0  0  0  0
   36.5880   32.0450   36.7460 H   0  0  0  0  0  0  0  0  0  0  0  0
   35.7110   30.7470   35.2190 C   0  0  0  0  0  0  0  0  0  0  0  0
   34.6100   30.3760   34.4920 C   0  0  0  0  0  0  0  0  0  0  0  0
   37.9000   26.5860   35.6360 C   0  0  0  0  0  0  0  0  0  0  0  0
   38.6010   27.2220   36.4670 O   0  0  0  0  0  0  0  0  0  0  0  0
   37.5420   25.2810   35.8580 O   0  0  0  0  0  0  0  0  0  0  0  0
   39.2040   22.8400   37.7860 N   0  0  0  0  0  0  0  0  0  0  0  0
   38.1880   23.6560   37.5110 N   0  0  0  0  0  0  0  0  0  0  0  0
   38.4600   24.3460   36.3710 C   0  0  0  0  0  0  0  0  0  0  0  0
   39.6990   23.9530   35.9030 C   0  0  0  0  0  0  0  0  0  0  0  0
   40.1200   23.0160   36.8170 C   0  0  0  0  0  0  0  0  0  0  0  0
   39.3260   22.1700   38.5840 H   0  0  0  0  0  0  0  0  0  0  0  0
   40.1580   24.3480   35.0070 H   0  0  0  0  0  0  0  0  0  0  0  0
   41.4200   22.3070   36.7210 C   0  0  0  0  0  0  0  0  0  0  0  0
   42.4930   22.9400   36.1530 C   0  0  0  0  0  0  0  0  0  0  0  0
   43.6550   22.2080   36.1030 C   0  0  0  0  0  0  0  0  0  0  0  0
   43.8070   20.9590   36.5560 N   0  0  0  0  0  0  0  0  0  0  0  0
   42.7180   20.3530   37.1200 C   0  0  0  0  0  0  0  0  0  0  0  0
   41.5730   21.0550   37.1760 N   0  0  0  0  0  0  0  0  0  0  0  0
   42.4260   23.9510   35.7690 H   0  0  0  0  0  0  0  0  0  0  0  0
   44.5500   22.6400   35.6670 H   0  0  0  0  0  0  0  0  0  0  0  0
   42.8120   19.3430   37.4960 H   0  0  0  0  0  0  0  0  0  0  0  0
  1 21  1  0  0  0  0
  2  1  2  0  0  0  0
  3  4  2  0  0  0  0
  3  2  1  0  0  0  0
  4  5  1  0  0  0  0
  5  9  1  0  0  0  0
  5  6  2  0  0  0  0
  6  1  1  0  0  0  0
  7  2  1  0  0  0  0
  8  3  1  0  0  0  0
  9 20  1  0  0  0  0
 10 11  1  0  0  0  0
 10  9  2  0  0  0  0
 11 12  2  0  0  0  0
 12 13  1  0  0  0  0
 13 14  1  0  0  0  0
 14 15  2  0  0  0  0
 15 16  1  0  0  0  0
 17 15  1  0  0  0  0
 17 18  1  0  0  0  0
 19 17  2  0  0  0  0
 20 13  2  0  0  0  0
 20 19  1  0  0  0  0
 21 23  1  0  0  0  0
 21 22  2  0  0  0  0
 23 26  1  0  0  0  0
 24 29  1  0  0  0  0
 25 24  1  0  0  0  0
 26 25  2  0  0  0  0
 27 26  1  0  0  0  0
 27 28  2  0  0  0  0
 28 24  1  0  0  0  0
 30 27  1  0  0  0  0
 31 28  1  0  0  0  0
 31 36  1  0  0  0  0
 32 31  2  0  0  0  0
 33 32  1  0  0  0  0
 33 34  2  0  0  0  0
 34 35  1  0  0  0  0
 35 36  2  0  0  0  0
 35 39  1  0  0  0  0
 37 32  1  0  0  0  0
 38 33  1  0  0  0  0
M  END
>  <minimizedAffinity>
-6.78399467

>  <minimizedRMSD>
1.47583139

$$$$
