
 OpenBabel03262519573D

 35 39  0  0  1  0  0  0  0  0999 V2000
   37.3800   21.6750   33.8370 C   0  0  1  0  0  0  0  0  0  0  0  0
   36.2020   21.2090   34.5370 C   0  0  0  0  0  0  0  0  0  0  0  0
   36.1530   21.2760   33.0130 C   0  0  2  0  0  0  0  0  0  0  0  0
   38.2540   20.9960   33.7420 H   0  0  0  0  0  0  0  0  0  0  0  0
   35.5600   21.9410   35.0290 H   0  0  0  0  0  0  0  0  0  0  0  0
   36.2400   20.2200   35.0500 H   0  0  0  0  0  0  0  0  0  0  0  0
   35.5380   22.0490   32.5390 H   0  0  0  0  0  0  0  0  0  0  0  0
   36.1810   19.9220   32.4040 C   0  0  0  0  0  0  0  0  0  0  0  0
   35.4460   19.0430   33.1460 N   0  0  0  0  0  0  0  0  0  0  0  0
   35.3260   17.7560   32.7040 C   0  0  0  0  0  3  0  0  0  0  0  0
   35.9110   17.3170   31.5530 N   0  0  0  0  0  0  0  0  0  0  0  0
   36.6370   18.1830   30.8240 C   0  0  0  0  0  0  0  0  0  0  0  0
   37.2870   17.8600   29.6490 C   0  0  0  0  0  3  0  0  0  0  0  0
   38.0240   18.8070   28.9660 C   0  0  0  0  0  0  0  0  0  0  0  0
   38.5350   18.5430   28.0370 H   0  0  0  0  0  0  0  0  0  0  0  0
   38.1480   20.1250   29.4190 C   0  0  0  0  0  0  0  0  0  0  0  0
   38.7400   20.8100   28.8340 H   0  0  0  0  0  0  0  0  0  0  0  0
   37.4960   20.4440   30.5920 C   0  0  0  0  0  3  0  0  0  0  0  0
   36.7760   19.4850   31.2440 C   0  0  0  0  0  0  0  0  0  0  0  0
   38.1780   23.9670   34.5210 C   0  0  0  0  0  0  0  0  0  0  0  0
   38.3560   25.2060   33.9200 C   0  0  0  0  0  0  0  0  0  0  0  0
   37.9670   25.0060   32.6380 N   0  0  0  0  0  0  0  0  0  0  0  0
   37.5930   23.7410   32.5160 C   0  0  0  0  0  0  0  0  0  0  0  0
   37.7120   23.0640   33.6710 N   0  0  0  0  0  0  0  0  0  0  0  0
   38.7220   26.0990   34.3950 H   0  0  0  0  0  0  0  0  0  0  0  0
   37.2470   23.4050   31.5400 H   0  0  0  0  0  0  0  0  0  0  0  0
   38.4660   23.6740   35.9230 C   0  0  0  0  0  0  0  0  0  0  0  0
   39.6730   23.0710   36.2880 C   0  0  0  0  0  0  0  0  0  0  0  0
   39.9230   22.8020   37.6400 C   0  0  0  0  0  0  0  0  0  0  0  0
   38.9710   23.1480   38.5190 N   0  0  0  0  0  0  0  0  0  0  0  0
   37.8050   23.7320   38.1530 C   0  0  0  0  0  0  0  0  0  0  0  0
   37.5520   23.9950   36.8620 N   0  0  0  0  0  0  0  0  0  0  0  0
   40.4200   22.8040   35.5520 H   0  0  0  0  0  0  0  0  0  0  0  0
   40.8540   22.3310   37.9660 H   0  0  0  0  0  0  0  0  0  0  0  0
   37.0630   23.9950   38.8920 H   0  0  0  0  0  0  0  0  0  0  0  0
  1  4  1  6  0  0  0
  1  2  1  0  0  0  0
  2  5  1  0  0  0  0
  2  6  1  0  0  0  0
  3  7  1  6  0  0  0
  3  1  1  0  0  0  0
  3  2  1  0  0  0  0
  8  3  1  0  0  0  0
  8  9  1  0  0  0  0
 10  9  2  0  0  0  0
 11 10  1  0  0  0  0
 12 19  1  0  0  0  0
 12 11  2  0  0  0  0
 13 12  1  0  0  0  0
 14 16  1  0  0  0  0
 14 13  2  0  0  0  0
 15 14  1  0  0  0  0
 16 18  2  0  0  0  0
 17 16  1  0  0  0  0
 18 19  1  0  0  0  0
 19  8  2  0  0  0  0
 20 27  1  0  0  0  0
 21 25  1  0  0  0  0
 21 20  2  0  0  0  0
 22 21  1  0  0  0  0
 23 22  2  0  0  0  0
 23 24  1  0  0  0  0
 24  1  1  0  0  0  0
 24 20  1  0  0  0  0
 26 23  1  0  0  0  0
 27 28  2  0  0  0  0
 27 32  1  0  0  0  0
 28 29  1  0  0  0  0
 29 34  1  0  0  0  0
 29 30  2  0  0  0  0
 31 30  1  0  0  0  0
 31 35  1  0  0  0  0
 32 31  2  0  0  0  0
 33 28  1  0  0  0  0
M  END
>  <minimizedAffinity>
-5.35259771

>  <minimizedRMSD>
1.92163885

$$$$
