
 OpenBabel03262519363D

 36 39  0  0  1  0  0  0  0  0999 V2000
   37.4500   23.8800   33.1230 N   0  0  0  0  0  0  0  0  0  0  0  0
   37.9640   22.9210   32.2210 C   0  0  0  0  0  0  0  0  0  0  0  0
   36.9230   22.7770   31.1240 C   0  0  0  0  0  0  0  0  0  0  0  0
   35.8460   23.7740   31.4880 C   0  0  0  0  0  0  0  0  0  0  0  0
   36.6790   24.7580   32.2850 C   0  0  2  0  0  0  0  0  0  0  0  0
   38.0920   21.9550   32.7740 H   0  0  0  0  0  0  0  0  0  0  0  0
   38.9410   23.2500   31.8250 H   0  0  0  0  0  0  0  0  0  0  0  0
   37.3590   22.9580   30.1170 H   0  0  0  0  0  0  0  0  0  0  0  0
   36.4770   21.7760   31.2120 H   0  0  0  0  0  0  0  0  0  0  0  0
   35.0200   23.3450   32.0460 H   0  0  0  0  0  0  0  0  0  0  0  0
   35.5630   24.2800   30.5310 H   0  0  0  0  0  0  0  0  0  0  0  0
   36.0000   25.2950   32.9680 H   0  0  0  0  0  0  0  0  0  0  0  0
   37.4350   25.6760   31.4460 C   0  0  0  0  0  0  0  0  0  0  0  0
   38.5120   25.3460   30.7340 N   0  0  0  0  0  0  0  0  0  0  0  0
   39.2090   26.1960   29.9630 C   0  0  0  0  0  0  0  0  0  0  0  0
   38.8460   27.5050   29.8550 N   0  0  0  0  0  0  0  0  0  0  0  0
   37.7570   27.9310   30.5470 C   0  0  0  0  0  0  0  0  0  0  0  0
   37.4090   29.2440   30.4210 C   0  0  0  0  0  0  0  0  0  0  0  0
   36.3140   29.7190   31.0990 C   0  0  0  0  0  0  0  0  0  0  0  0
   36.0460   30.7570   30.9940 H   0  0  0  0  0  0  0  0  0  0  0  0
   35.5940   28.8600   31.8880 C   0  0  0  0  0  0  0  0  0  0  0  0
   34.7330   29.2400   32.4190 H   0  0  0  0  0  0  0  0  0  0  0  0
   35.9970   27.5420   31.9750 C   0  0  0  0  0  0  0  0  0  0  0  0
   37.0860   27.0050   31.3200 C   0  0  0  0  0  0  0  0  0  0  0  0
   38.4230   24.6460   33.8290 C   0  0  0  0  0  0  0  0  0  0  0  0
   38.3420   25.7270   33.7760 H   0  0  0  0  0  0  0  0  0  0  0  0
   39.4230   24.3920   33.3690 H   0  0  0  0  0  0  0  0  0  0  0  0
   38.0070   24.3610   37.5660 C   0  0  0  0  0  0  0  0  0  0  0  0
   37.8120   24.8260   36.2750 C   0  0  0  0  0  0  0  0  0  0  0  0
   38.5490   24.2250   35.2630 C   0  0  0  0  0  0  0  0  0  0  0  0
   39.4340   23.2040   35.5780 N   0  0  0  0  0  0  0  0  0  0  0  0
   39.5820   22.7940   36.8510 C   0  0  0  0  0  0  0  0  0  0  0  0
   38.8610   23.3820   37.8390 N   0  0  0  0  0  0  0  0  0  0  0  0
   37.4280   24.8380   38.3340 H   0  0  0  0  0  0  0  0  0  0  0  0
   37.1460   25.6110   35.9500 H   0  0  0  0  0  0  0  0  0  0  0  0
   40.3060   21.9940   36.9280 H   0  0  0  0  0  0  0  0  0  0  0  0
  1 25  1  0  0  0  0
  2  6  1  0  0  0  0
  2  1  1  0  0  0  0
  3  9  1  0  0  0  0
  3  4  1  0  0  0  0
  3  2  1  0  0  0  0
  4 10  1  0  0  0  0
  4  5  1  0  0  0  0
  5 12  1  1  0  0  0
  5  1  1  0  0  0  0
  7  2  1  0  0  0  0
  8  3  1  0  0  0  0
 11  4  1  0  0  0  0
 13  5  1  0  0  0  0
 14 13  2  0  0  0  0
 15 14  1  0  0  0  0
 16 15  2  0  0  0  0
 16 17  1  0  0  0  0
 17 24  1  0  0  0  0
 18 17  2  0  0  0  0
 18 19  1  0  0  0  0
 19 21  2  0  0  0  0
 20 19  1  0  0  0  0
 21 23  1  0  0  0  0
 21 22  1  0  0  0  0
 24 13  1  0  0  0  0
 24 23  2  0  0  0  0
 25 30  1  0  0  0  0
 26 25  1  0  0  0  0
 27 25  1  0  0  0  0
 28 33  1  0  0  0  0
 28 34  1  0  0  0  0
 29 28  2  0  0  0  0
 30 31  2  0  0  0  0
 30 29  1  0  0  0  0
 31 32  1  0  0  0  0
 32 36  1  0  0  0  0
 32 33  2  0  0  0  0
 35 29  1  0  0  0  0
M  END
>  <minimizedAffinity>
-5.03297663

>  <minimizedRMSD>
2.75973868

$$$$
