
 OpenBabel03262519483D

 44 48  0  0  1  0  0  0  0  0999 V2000
   37.5900   25.5560   33.1200 N   0  0  0  0  0  0  0  0  0  0  0  0
   37.1460   24.4990   32.4390 C   0  0  0  0  0  0  0  0  0  0  0  0
   36.1260   24.7750   31.5620 C   0  0  0  0  0  0  0  0  0  0  0  0
   35.9240   26.0810   31.7070 N   0  0  0  0  0  0  0  0  0  0  0  0
   36.8040   26.5570   32.6420 C   0  0  0  0  0  0  0  0  0  0  0  0
   37.5810   23.4960   32.5870 H   0  0  0  0  0  0  0  0  0  0  0  0
   35.6280   24.0650   30.9200 H   0  0  0  0  0  0  0  0  0  0  0  0
   36.8020   28.0390   32.9720 C   0  0  1  0  0  0  0  0  0  0  0  0
   36.3970   28.9540   31.8840 C   0  0  0  0  0  0  0  0  0  0  0  0
   35.4240   28.6910   33.0170 C   0  0  2  0  0  0  0  0  0  0  0  0
   37.5450   28.3950   33.7020 H   0  0  0  0  0  0  0  0  0  0  0  0
   36.8580   29.9340   31.7460 H   0  0  0  0  0  0  0  0  0  0  0  0
   36.0140   28.5190   30.9160 H   0  0  0  0  0  0  0  0  0  0  0  0
   34.5360   28.0790   32.8690 H   0  0  0  0  0  0  0  0  0  0  0  0
   35.3570   29.8860   33.9240 C   0  0  0  0  0  0  0  0  0  0  0  0
   36.0730   30.1230   35.0300 N   0  0  0  0  0  0  0  0  0  0  0  0
   36.0040   31.2300   35.7810 C   0  0  0  0  0  3  0  0  0  0  0  0
   35.1760   32.2230   35.4670 N   0  0  0  0  0  0  0  0  0  0  0  0
   34.4000   32.0960   34.3690 C   0  0  0  0  0  0  0  0  0  0  0  0
   33.5500   33.1410   34.0890 C   0  0  0  0  0  3  0  0  0  0  0  0
   32.7310   33.0510   32.9920 C   0  0  0  0  0  0  0  0  0  0  0  0
   32.0730   33.8620   32.7770 H   0  0  0  0  0  0  0  0  0  0  0  0
   32.7850   31.9200   32.2090 C   0  0  0  0  0  0  0  0  0  0  0  0
   32.1290   31.8820   31.3560 H   0  0  0  0  0  0  0  0  0  0  0  0
   33.6550   30.9090   32.5400 C   0  0  0  0  0  3  0  0  0  0  0  0
   34.5130   30.9370   33.6350 C   0  0  0  0  0  0  0  0  0  0  0  0
   38.5740   25.7710   34.1050 C   0  0  0  0  0  0  0  0  0  0  0  0
   39.1490   26.7020   33.8810 H   0  0  0  0  0  0  0  0  0  0  0  0
   39.3130   24.9380   34.0390 H   0  0  0  0  0  0  0  0  0  0  0  0
   38.0420   25.7790   35.4920 C   0  0  1  0  0  0  0  0  0  0  0  0
   36.9400   25.6430   35.5350 H   0  0  0  0  0  0  0  0  0  0  0  0
   38.6590   23.3870   38.3590 C   0  0  0  0  0  0  0  0  0  0  0  0
   38.0550   24.4280   37.6330 C   0  0  0  0  0  0  0  0  0  0  0  0
   38.6190   24.7090   36.3440 C   0  0  0  0  0  0  0  0  0  0  0  0
   39.6950   23.9710   35.8830 N   0  0  0  0  0  0  0  0  0  0  0  0
   40.2250   22.9970   36.6150 C   0  0  0  0  0  0  0  0  0  0  0  0
   39.7010   22.7020   37.8660 N   0  0  0  0  0  0  0  0  0  0  0  0
   38.2260   23.1890   39.3230 H   0  0  0  0  0  0  0  0  0  0  0  0
   37.2190   25.0220   37.9600 H   0  0  0  0  0  0  0  0  0  0  0  0
   41.0500   22.3990   36.3100 H   0  0  0  0  0  0  0  0  0  0  0  0
   38.2810   27.1420   36.1250 C   0  0  0  0  0  0  0  0  0  0  0  0
   38.8500   26.9840   37.0630 H   0  0  0  0  0  0  0  0  0  0  0  0
   38.9850   27.7290   35.4660 H   0  0  0  0  0  0  0  0  0  0  0  0
   37.3660   27.6740   36.3790 H   0  0  0  0  0  0  0  0  0  0  0  0
  1 27  1  0  0  0  0
  2  6  1  0  0  0  0
  2  1  1  0  0  0  0
  3  4  1  0  0  0  0
  3  2  2  0  0  0  0
  4  5  2  0  0  0  0
  5  8  1  0  0  0  0
  5  1  1  0  0  0  0
  7  3  1  0  0  0  0
  8 10  1  0  0  0  0
  8 11  1  1  0  0  0
  9  8  1  0  0  0  0
  9 10  1  0  0  0  0
 10 14  1  6  0  0  0
 10 15  1  0  0  0  0
 12  9  1  0  0  0  0
 13  9  1  0  0  0  0
 15 16  1  0  0  0  0
 16 17  2  0  0  0  0
 18 17  1  0  0  0  0
 19 18  2  0  0  0  0
 20 19  1  0  0  0  0
 21 20  2  0  0  0  0
 22 21  1  0  0  0  0
 23 25  2  0  0  0  0
 23 21  1  0  0  0  0
 24 23  1  0  0  0  0
 25 26  1  0  0  0  0
 26 15  2  0  0  0  0
 26 19  1  0  0  0  0
 27 30  1  0  0  0  0
 28 27  1  0  0  0  0
 29 27  1  0  0  0  0
 30 31  1  6  0  0  0
 30 41  1  0  0  0  0
 30 34  1  0  0  0  0
 32 38  1  0  0  0  0
 33 39  1  0  0  0  0
 33 32  2  0  0  0  0
 34 33  1  0  0  0  0
 35 34  2  0  0  0  0
 35 36  1  0  0  0  0
 36 37  2  0  0  0  0
 37 32  1  0  0  0  0
 40 36  1  0  0  0  0
 41 44  1  0  0  0  0
 41 42  1  0  0  0  0
 43 41  1  0  0  0  0
M  END
>  <minimizedAffinity>
-5.83574009

>  <minimizedRMSD>
1.35218728

$$$$
