
     RDKit          3D

 47 51  0  0  0  0  0  0  0  0999 V2000
   38.0778   25.7665   35.4273 C   0  0  1  0  0  0  0  0  0  0  0  0
   38.6401   23.3790   38.3077 C   0  0  0  0  0  0  0  0  0  0  0  0
   38.0452   24.4142   37.5663 C   0  0  0  0  0  0  0  0  0  0  0  0
   38.6421   24.7028   36.2944 C   0  0  0  0  0  0  0  0  0  0  0  0
   39.7395   23.9773   35.8629 N   0  0  0  0  0  0  0  0  0  0  0  0
   40.2588   23.0077   36.6095 C   0  0  0  0  0  0  0  0  0  0  0  0
   39.7030   22.7057   37.8452 N   0  0  0  0  0  0  0  0  0  0  0  0
   38.3656   27.1381   36.0206 C   0  0  0  0  0  0  0  0  0  0  0  0
   38.5816   25.7109   34.0313 C   0  0  0  0  0  0  0  0  0  0  0  0
   37.5827   25.4376   33.0757 N   0  0  0  0  0  0  0  0  0  0  0  0
   37.0549   24.3348   32.5456 C   0  0  0  0  0  0  0  0  0  0  0  0
   36.0592   24.5654   31.6292 C   0  0  0  0  0  0  0  0  0  0  0  0
   35.9622   25.8901   31.5866 N   0  0  0  0  0  0  0  0  0  0  0  0
   36.8777   26.4224   32.4553 C   0  0  0  0  0  0  0  0  0  0  0  0
   36.9953   27.9306   32.5742 C   0  0  1  0  0  0  0  0  0  0  0  0
   35.8522   28.7195   32.0685 C   0  0  0  0  0  0  0  0  0  0  0  0
   36.0362   28.5782   33.5668 C   0  0  2  0  0  0  0  0  0  0  0  0
   36.9744   25.6629   35.4937 H   0  0  0  0  0  0  0  0  0  0  0  0
   38.1807   23.1754   39.2590 H   0  0  0  0  0  0  0  0  0  0  0  0
   37.1927   24.9984   37.8695 H   0  0  0  0  0  0  0  0  0  0  0  0
   41.0994   22.4204   36.3266 H   0  0  0  0  0  0  0  0  0  0  0  0
   38.9486   26.9871   36.9515 H   0  0  0  0  0  0  0  0  0  0  0  0
   39.0731   27.6894   35.3348 H   0  0  0  0  0  0  0  0  0  0  0  0
   37.4715   27.7005   36.2795 H   0  0  0  0  0  0  0  0  0  0  0  0
   39.1348   26.6415   33.7566 H   0  0  0  0  0  0  0  0  0  0  0  0
   39.3349   24.8885   33.9836 H   0  0  0  0  0  0  0  0  0  0  0  0
   37.4081   23.3314   32.8374 H   0  0  0  0  0  0  0  0  0  0  0  0
   35.5051   23.8129   31.0876 H   0  0  0  0  0  0  0  0  0  0  0  0
   38.0028   28.3671   32.4990 H   0  0  0  0  0  0  0  0  0  0  0  0
   35.9852   29.6813   31.5684 H   0  0  0  0  0  0  0  0  0  0  0  0
   34.9234   28.1812   31.7253 H   0  0  0  0  0  0  0  0  0  0  0  0
   35.3741   27.9500   34.1613 H   0  0  0  0  0  0  0  0  0  0  0  0
   36.5523   29.8646   34.1461 C   0  0  0  0  0  0  0  0  0  0  0  0
   37.1011   30.0652   35.3503 N   0  0  0  0  0  0  0  0  0  0  0  0
   37.5865   31.2284   35.8025 C   0  0  0  0  0  0  0  0  0  0  0  0
   37.5560   32.3239   35.0480 N   0  0  0  0  0  0  0  0  0  0  0  0
   37.0230   32.2442   33.8101 C   0  0  0  0  0  0  0  0  0  0  0  0
   37.0005   33.4048   33.0709 C   0  0  0  0  0  0  0  0  0  0  0  0
   36.4544   33.3753   31.8128 C   0  0  0  0  0  0  0  0  0  0  0  0
   36.4376   34.2752   31.2406 H   0  0  0  0  0  0  0  0  0  0  0  0
   35.9473   32.1890   31.3307 C   0  0  0  0  0  0  0  0  0  0  0  0
   35.5255   32.2010   30.3401 H   0  0  0  0  0  0  0  0  0  0  0  0
   35.9990   31.0630   32.1167 C   0  0  0  0  0  0  0  0  0  0  0  0
   36.5390   31.0228   33.3982 C   0  0  0  0  0  0  0  0  0  0  0  0
   37.9937   31.1985   36.8065 H   0  0  0  0  0  0  0  0  0  0  0  0
   37.4052   34.3299   33.4690 H   0  0  0  0  0  0  0  0  0  0  0  0
   35.5673   30.1987   31.6628 H   0  0  0  0  0  0  0  0  0  0  0  0
  1  8  1  0
  1  4  1  0
  3  2  2  0
  4  3  1  0
  5  4  2  0
  5  6  1  0
  6  7  2  0
  7  2  1  0
  9  1  1  0
 10  9  1  0
 11 10  1  0
 12 11  2  0
 13 12  1  0
 13 14  2  0
 14 15  1  0
 14 10  1  0
 15 17  1  0
 16 15  1  0
 16 17  1  0
  1 18  1  6
  2 19  1  0
  3 20  1  0
  6 21  1  0
  8 22  1  0
  8 23  1  0
  8 24  1  0
  9 25  1  0
  9 26  1  0
 11 27  1  0
 12 28  1  0
 15 29  1  1
 16 30  1  0
 16 31  1  0
 17 32  1  1
 33 34  2  0
 34 35  1  0
 35 36  2  0
 36 37  1  0
 37 38  2  0
 38 39  1  0
 39 40  1  0
 39 41  2  0
 41 42  1  0
 41 43  1  0
 43 44  2  0
 44 33  1  0
 44 37  1  0
 35 45  1  0
 38 46  1  0
 43 47  1  0
 17 33  1  0
M  ISO  8  18   8  19  14  20  14  21  14  22   8  23   8  24   8  25   8
M  ISO  8  26   8  27  14  28  14  29  13  30  13  31  13  32  13  40  16
M  ISO  1  42  16
M  END
>  <DihAtoms>  (1) 
14,16,32,33

>  <DihDeg>  (1) 
-56.64718844403666

$$$$
