
     RDKit          3D

 32 33  0  0  0  0  0  0  0  0999 V2000
   41.0643   21.9237   37.4381 C   0  0  0  0  0  0  0  0  0  0  0  0
   39.9989   22.7825   37.8039 C   0  0  0  0  0  0  0  0  0  0  0  0
   39.2078   23.3304   36.7568 C   0  0  0  0  0  0  0  0  0  0  0  0
   39.5173   22.9996   35.4445 N   0  0  0  0  0  0  0  0  0  0  0  0
   40.5379   22.1828   35.1657 C   0  0  0  0  0  0  0  0  0  0  0  0
   41.3158   21.6405   36.1512 N   0  0  0  0  0  0  0  0  0  0  0  0
   38.0786   24.2286   37.0375 C   0  0  1  0  0  0  0  0  0  0  0  0
   37.8213   24.3382   38.5338 C   0  0  0  0  0  0  0  0  0  0  0  0
   38.1580   25.5667   36.4044 C   0  0  0  0  0  0  0  0  0  0  0  0
   41.5897   21.5710   38.3115 H   0  0  0  0  0  0  0  0  0  0  0  0
   39.7563   23.0402   38.8031 H   0  0  0  0  0  0  0  0  0  0  0  0
   40.7460   21.9509   34.1302 H   0  0  0  0  0  0  0  0  0  0  0  0
   37.1832   23.6984   36.5819 H   0  0  0  0  0  0  0  0  0  0  0  0
   37.5111   23.3309   38.9102 H   0  0  0  0  0  0  0  0  0  0  0  0
   36.9270   24.9866   38.6496 H   0  0  0  0  0  0  0  0  0  0  0  0
   38.6818   24.7546   39.0613 H   0  0  0  0  0  0  0  0  0  0  0  0
   37.1933   26.0940   36.6669 H   0  0  0  0  0  0  0  0  0  0  0  0
   38.0970   25.4722   35.2800 H   0  0  0  0  0  0  0  0  0  0  0  0
   39.2685   26.4621   36.7303 C   0  0  0  0  0  0  0  0  0  0  0  0
   40.3244   26.6143   35.6735 C   0  0  0  0  0  0  0  0  0  0  0  0
   40.9400   27.9904   35.9389 C   0  0  0  0  0  0  0  0  0  0  0  0
   39.9617   28.7800   36.7377 C   0  0  0  0  0  0  0  0  0  0  0  0
   38.7570   27.9081   36.8365 C   0  0  0  0  0  0  0  0  0  0  0  0
   39.7088   26.2399   37.7323 H   0  0  0  0  0  0  0  0  0  0  0  0
   39.8992   26.7057   34.6547 H   0  0  0  0  0  0  0  0  0  0  0  0
   41.1105   25.8823   35.8071 H   0  0  0  0  0  0  0  0  0  0  0  0
   41.1762   28.5254   35.0030 H   0  0  0  0  0  0  0  0  0  0  0  0
   41.9243   27.8807   36.4510 H   0  0  0  0  0  0  0  0  0  0  0  0
   40.3646   29.0734   37.7459 H   0  0  0  0  0  0  0  0  0  0  0  0
   39.6865   29.7317   36.2050 H   0  0  0  0  0  0  0  0  0  0  0  0
   38.2271   28.0936   37.7687 H   0  0  0  0  0  0  0  0  0  0  0  0
   38.1017   28.1475   35.9559 H   0  0  0  0  0  0  0  0  0  0  0  0
  1  2  2  0
  3  7  1  0
  3  2  1  0
  4  3  2  0
  5  4  1  0
  5  6  2  0
  6  1  1  0
  7  8  1  0
  9  7  1  0
  1 10  1  0
  2 11  1  0
  5 12  1  0
  7 13  1  6
  8 14  1  0
  8 15  1  0
  8 16  1  0
  9 17  1  0
  9 18  1  0
 19 20  1  0
 20 21  1  0
 21 22  1  0
 22 23  1  0
 23 19  1  0
 19 24  1  0
 20 25  1  0
 20 26  1  0
 21 27  1  0
 21 28  1  0
 22 29  1  0
 22 30  1  0
 23 31  1  0
 23 32  1  0
  9 19  1  0
M  ISO  8  10  14  11  14  12  14  13   8  14   8  15   8  16   8  17   8
M  ISO  1  18   8
M  END
>  <DihAtoms>  (1) 
6,8,18,19

>  <DihDeg>  (1) 
60.72258430970015

$$$$
