
 OpenBabel03262519433D

 23 24  0  0  1  0  0  0  0  0999 V2000
   38.1810   24.3630   36.8990 C   0  0  1  0  0  0  0  0  0  0  0  0
   37.2940   23.8900   36.3670 H   0  0  0  0  0  0  0  0  0  0  0  0
   41.0050   21.8910   37.4430 C   0  0  0  0  0  0  0  0  0  0  0  0
   39.9600   22.7940   37.7570 C   0  0  0  0  0  0  0  0  0  0  0  0
   39.2810   23.4140   36.6730 C   0  0  0  0  0  0  0  0  0  0  0  0
   39.6720   23.1070   35.3770 N   0  0  0  0  0  0  0  0  0  0  0  0
   40.6680   22.2450   35.1480 C   0  0  0  0  0  0  0  0  0  0  0  0
   41.3400   21.6330   36.1700 N   0  0  0  0  0  0  0  0  0  0  0  0
   41.4440   21.4850   38.3420 H   0  0  0  0  0  0  0  0  0  0  0  0
   39.6550   23.0340   38.7440 H   0  0  0  0  0  0  0  0  0  0  0  0
   40.9430   22.0330   34.1240 H   0  0  0  0  0  0  0  0  0  0  0  0
   37.8230   24.4500   38.3760 C   0  0  0  0  0  0  0  0  0  0  0  0
   37.4370   23.4510   38.7020 H   0  0  0  0  0  0  0  0  0  0  0  0
   36.9560   25.1410   38.4470 H   0  0  0  0  0  0  0  0  0  0  0  0
   38.6640   24.8090   38.9730 H   0  0  0  0  0  0  0  0  0  0  0  0
   38.3710   25.7100   36.3090 C   0  0  0  0  0  0  0  0  0  0  0  0
   39.4890   25.8540   36.2150 H   0  0  0  0  0  0  0  0  0  0  0  0
   38.0740   26.5080   37.0510 H   0  0  0  0  0  0  0  0  0  0  0  0
   37.7600   26.0320   35.0190 C   0  0  0  0  0  0  0  0  0  0  0  0
   36.9550   27.2970   34.9690 C   0  0  0  0  0  0  0  0  0  0  0  0
   37.0050   27.7280   33.5010 C   0  0  0  0  0  0  0  0  0  0  0  0
   38.1800   27.0640   32.8710 C   0  0  0  0  0  0  0  0  0  0  0  0
   38.8580   26.3470   33.9890 C   0  0  0  0  0  0  0  0  0  0  0  0
  1  2  1  6  0  0  0
  1 12  1  0  0  0  0
  3  4  1  0  0  0  0
  3  9  1  0  0  0  0
  4 10  1  0  0  0  0
  5  1  1  0  0  0  0
  5  4  2  0  0  0  0
  6  5  1  0  0  0  0
  7  6  2  0  0  0  0
  7  8  1  0  0  0  0
  8  3  2  0  0  0  0
 11  7  1  0  0  0  0
 12 14  1  0  0  0  0
 12 13  1  0  0  0  0
 12 15  1  0  0  0  0
 16  1  1  0  0  0  0
 16 18  1  0  0  0  0
 17 16  1  0  0  0  0
 19 16  1  0  0  0  0
 20 19  1  0  0  0  0
 21 20  1  0  0  0  0
 22 21  1  0  0  0  0
 22 23  1  0  0  0  0
 23 19  1  0  0  0  0
M  END
>  <minimizedAffinity>
-4.18960476

>  <minimizedRMSD>
2.2799809

$$$$
