
 OpenBabel03262519593D

 38 42  0  0  1  0  0  0  0  0999 V2000
   40.0660   23.7510   35.9120 C   0  0  1  0  0  0  0  0  0  0  0  0
   39.2680   24.9170   35.6330 C   0  0  0  0  0  0  0  0  0  0  0  0
   38.6000   23.5180   35.5970 C   0  0  1  0  0  0  0  0  0  0  0  0
   40.3320   23.5570   36.9990 H   0  0  0  0  0  0  0  0  0  0  0  0
   38.9670   25.5640   36.4810 H   0  0  0  0  0  0  0  0  0  0  0  0
   39.3720   25.4810   34.7050 H   0  0  0  0  0  0  0  0  0  0  0  0
   38.1310   23.2680   34.1900 C   0  0  0  0  0  0  0  0  0  0  0  0
   38.2660   21.9210   33.9050 N   0  0  0  0  0  0  0  0  0  0  0  0
   37.8780   21.3170   32.8070 C   0  0  0  0  0  3  0  0  0  0  0  0
   37.2870   21.9820   31.8050 N   0  0  0  0  0  0  0  0  0  0  0  0
   37.1080   23.2970   31.9730 C   0  0  0  0  0  0  0  0  0  0  0  0
   36.5560   24.1760   31.0700 C   0  0  0  0  0  3  0  0  0  0  0  0
   36.4270   25.5390   31.2880 C   0  0  0  0  0  0  0  0  0  0  0  0
   35.9730   26.0960   30.4850 H   0  0  0  0  0  0  0  0  0  0  0  0
   36.8820   26.0870   32.4990 C   0  0  0  0  0  0  0  0  0  0  0  0
   36.7590   27.1500   32.6140 H   0  0  0  0  0  0  0  0  0  0  0  0
   37.4300   25.2010   33.3930 C   0  0  0  0  0  3  0  0  0  0  0  0
   37.5310   23.8670   33.1340 C   0  0  0  0  0  0  0  0  0  0  0  0
   41.6340   23.5720   33.9640 C   0  0  0  0  0  0  0  0  0  0  0  0
   42.4210   22.5740   33.3950 C   0  0  0  0  0  0  0  0  0  0  0  0
   42.1910   21.4900   34.1900 N   0  0  0  0  0  0  0  0  0  0  0  0
   41.3380   21.8500   35.1360 C   0  0  0  0  0  0  0  0  0  0  0  0
   40.9720   23.1360   35.0230 N   0  0  0  0  0  0  0  0  0  0  0  0
   43.0680   22.6380   32.5240 H   0  0  0  0  0  0  0  0  0  0  0  0
   41.0150   21.1210   35.8890 H   0  0  0  0  0  0  0  0  0  0  0  0
   41.5550   24.9370   33.4740 C   0  0  0  0  0  0  0  0  0  0  0  0
   42.2960   25.9540   34.1200 C   0  0  0  0  0  0  0  0  0  0  0  0
   42.1960   27.2660   33.6100 C   0  0  0  0  0  0  0  0  0  0  0  0
   41.3940   27.4590   32.5310 N   0  0  0  0  0  0  0  0  0  0  0  0
   40.7000   26.4580   31.9420 C   0  0  0  0  0  0  0  0  0  0  0  0
   40.7730   25.2000   32.4020 N   0  0  0  0  0  0  0  0  0  0  0  0
   42.9210   25.7510   34.9760 H   0  0  0  0  0  0  0  0  0  0  0  0
   42.7350   28.0900   34.0550 H   0  0  0  0  0  0  0  0  0  0  0  0
   40.1100   26.7780   31.0950 H   0  0  0  0  0  0  0  0  0  0  0  0
   37.6810   23.3120   36.7590 C   0  0  0  0  0  0  0  0  0  0  0  0
   36.9220   22.1860   36.6530 F   0  0  0  0  0  0  0  0  0  0  0  0
   38.5430   22.9070   37.9350 F   0  0  0  0  0  0  0  0  0  0  0  0
   37.1080   24.4020   37.2850 F   0  0  0  0  0  0  0  0  0  0  0  0
  1  4  1  1  0  0  0
  2  1  1  0  0  0  0
  2  5  1  0  0  0  0
  3  2  1  0  0  0  0
  3  1  1  0  0  0  0
  3 35  1  1  0  0  0
  6  2  1  0  0  0  0
  7  3  1  0  0  0  0
  8  7  1  0  0  0  0
  9  8  2  0  0  0  0
 10 11  2  0  0  0  0
 10  9  1  0  0  0  0
 11 18  1  0  0  0  0
 12 13  2  0  0  0  0
 12 11  1  0  0  0  0
 13 15  1  0  0  0  0
 14 13  1  0  0  0  0
 15 16  1  0  0  0  0
 15 17  2  0  0  0  0
 18 17  1  0  0  0  0
 18  7  2  0  0  0  0
 19 23  1  0  0  0  0
 20 19  2  0  0  0  0
 20 21  1  0  0  0  0
 21 22  2  0  0  0  0
 22 25  1  0  0  0  0
 23 22  1  0  0  0  0
 23  1  1  0  0  0  0
 24 20  1  0  0  0  0
 26 19  1  0  0  0  0
 26 27  1  0  0  0  0
 27 32  1  0  0  0  0
 28 33  1  0  0  0  0
 28 27  2  0  0  0  0
 29 28  1  0  0  0  0
 30 31  1  0  0  0  0
 30 29  2  0  0  0  0
 31 26  2  0  0  0  0
 34 30  1  0  0  0  0
 35 38  1  0  0  0  0
 35 37  1  0  0  0  0
 36 35  1  0  0  0  0
M  END
>  <minimizedAffinity>
-5.03383541

>  <minimizedRMSD>
3.92874694

$$$$
