
 OpenBabel03262518073D

 36 40  0  0  0  0  0  0  0  0999 V2000
   44.3180   20.3070   33.5220 C   0  0  0  0  0  0  0  0  0  0  0  0
   45.6950   20.1510   33.3460 C   0  0  0  0  0  0  0  0  0  0  0  0
   46.2220   20.0940   32.0980 C   0  0  0  0  0  0  0  0  0  0  0  0
   45.3920   20.1930   30.9870 C   0  0  0  0  0  0  0  0  0  0  0  0
   43.7600   20.3760   31.8250 S   0  0  0  0  0  0  0  0  0  0  0  0
   46.3450   20.0760   34.2350 H   0  0  0  0  0  0  0  0  0  0  0  0
   47.2720   19.9390   31.9690 H   0  0  0  0  0  0  0  0  0  0  0  0
   45.3890   20.1510   29.5710 C   0  0  0  0  0  0  0  0  0  0  0  0
   45.4070   21.3240   28.8710 N   0  0  0  0  0  0  0  0  0  0  0  0
   45.3060   21.3990   27.5440 C   0  0  0  0  0  0  0  0  0  0  0  0
   45.1770   20.2910   26.8010 N   0  0  0  0  0  0  0  0  0  0  0  0
   45.1480   19.0680   27.3690 C   0  0  0  0  0  0  0  0  0  0  0  0
   45.0470   17.9250   26.6120 C   0  0  0  0  0  0  0  0  0  0  0  0
   45.0550   16.6840   27.2130 C   0  0  0  0  0  0  0  0  0  0  0  0
   44.9700   15.8660   26.5220 H   0  0  0  0  0  0  0  0  0  0  0  0
   45.1700   16.6720   28.6080 C   0  0  0  0  0  0  0  0  0  0  0  0
   45.1710   15.6610   29.0080 H   0  0  0  0  0  0  0  0  0  0  0  0
   45.2680   17.8470   29.3120 C   0  0  0  0  0  0  0  0  0  0  0  0
   45.2600   19.0930   28.7380 C   0  0  0  0  0  0  0  0  0  0  0  0
   43.6230   19.7320   37.0850 C   0  0  0  0  0  0  0  0  0  0  0  0
   42.4750   20.5060   37.3020 C   0  0  0  0  0  0  0  0  0  0  0  0
   41.9470   21.2170   36.2320 C   0  0  0  0  0  0  0  0  0  0  0  0
   42.5780   21.1230   35.0030 N   0  0  0  0  0  0  0  0  0  0  0  0
   43.6700   20.3750   34.8400 C   0  0  0  0  0  0  0  0  0  0  0  0
   44.2000   19.6720   35.8840 N   0  0  0  0  0  0  0  0  0  0  0  0
   43.9340   19.2320   37.9900 H   0  0  0  0  0  0  0  0  0  0  0  0
   41.9660   20.5900   38.2640 H   0  0  0  0  0  0  0  0  0  0  0  0
   40.7530   22.0610   36.3560 C   0  0  0  0  0  0  0  0  0  0  0  0
   39.9120   22.6710   35.4890 N   0  0  0  0  0  0  0  0  0  0  0  0
   39.0010   23.3110   36.1620 O   0  0  0  0  0  0  0  0  0  0  0  0
   39.2110   23.1470   37.4650 C   0  0  0  0  0  0  0  0  0  0  0  0
   40.2860   22.3790   37.5810 N   0  0  0  0  0  0  0  0  0  0  0  0
   38.4120   23.7010   38.5720 C   0  0  0  0  0  0  0  0  0  0  0  0
   39.2510   23.8820   39.6840 F   0  0  0  0  0  0  0  0  0  0  0  0
   37.3840   22.8740   38.9270 F   0  0  0  0  0  0  0  0  0  0  0  0
   37.9480   24.9690   38.2400 F   0  0  0  0  0  0  0  0  0  0  0  0
  1 24  1  0  0  0  0
  2  1  2  0  0  0  0
  2  6  1  0  0  0  0
  3  2  1  0  0  0  0
  4  5  1  0  0  0  0
  4  3  2  0  0  0  0
  5  1  1  0  0  0  0
  7  3  1  0  0  0  0
  8  4  1  0  0  0  0
  9  8  1  0  0  0  0
 10  9  2  0  0  0  0
 11 12  2  0  0  0  0
 11 10  1  0  0  0  0
 12 19  1  0  0  0  0
 13 14  2  0  0  0  0
 13 12  1  0  0  0  0
 14 16  1  0  0  0  0
 15 14  1  0  0  0  0
 16 17  1  0  0  0  0
 16 18  2  0  0  0  0
 19 18  1  0  0  0  0
 19  8  2  0  0  0  0
 20 21  1  0  0  0  0
 20 26  1  0  0  0  0
 21 27  1  0  0  0  0
 22 28  1  0  0  0  0
 22 21  2  0  0  0  0
 23 22  1  0  0  0  0
 24 23  2  0  0  0  0
 24 25  1  0  0  0  0
 25 20  2  0  0  0  0
 28 32  1  0  0  0  0
 29 30  1  0  0  0  0
 29 28  2  0  0  0  0
 30 31  1  0  0  0  0
 31 32  2  0  0  0  0
 31 33  1  0  0  0  0
 33 35  1  0  0  0  0
 33 34  1  0  0  0  0
 36 33  1  0  0  0  0
M  END
>  <minimizedAffinity>
-3.88384581

>  <minimizedRMSD>
0.281045079

$$$$
