REMARK  Name = 
REMARK  4 active torsions:
REMARK  status: ('A' for Active; 'I' for Inactive)
REMARK    1  A    between atoms: C_1  and  C_6
REMARK    2  A    between atoms: N_5  and  C_12
REMARK    3  A    between atoms: C_14  and  C_15
REMARK    4  A    between atoms: C_14  and  C_27
REMARK                            x       y       z     vdW  Elec       q    Type
REMARK                         _______ _______ _______ _____ _____    ______ ____
ROOT
ATOM      1  C   UNL     1      37.869  23.698  33.502  0.00  0.00    +0.000 A 
ATOM      2  C   UNL     1      37.467  22.657  32.667  0.00  0.00    +0.000 A 
ATOM      3  N   UNL     1      37.486  21.562  33.486  0.00  0.00    +0.000 NA
ATOM      4  C   UNL     1      37.872  21.966  34.693  0.00  0.00    +0.000 A 
ATOM      5  N   UNL     1      38.113  23.273  34.729  0.00  0.00    +0.000 N 
ATOM      6  H   UNL     1      37.215  22.771  31.622  0.00  0.00    +0.000 HD
ATOM      7  H   UNL     1      37.920  21.153  35.431  0.00  0.00    +0.000 HD
ENDROOT
BRANCH   1   8
ATOM      8  C   UNL     1      38.014  25.083  33.077  0.00  0.00    +0.000 A 
ATOM      9  C   UNL     1      39.296  25.586  32.769  0.00  0.00    +0.000 A 
ATOM     10  C   UNL     1      39.391  26.933  32.358  0.00  0.00    +0.000 A 
ATOM     11  N   UNL     1      38.239  27.651  32.287  0.00  0.00    +0.000 NA
ATOM     12  C   UNL     1      37.030  27.131  32.591  0.00  0.00    +0.000 A 
ATOM     13  N   UNL     1      36.910  25.851  32.985  0.00  0.00    +0.000 NA
ATOM     14  H   UNL     1      40.158  24.945  32.853  0.00  0.00    +0.000 HD
ATOM     15  H   UNL     1      40.360  27.347  32.115  0.00  0.00    +0.000 HD
ATOM     16  H   UNL     1      36.211  27.828  32.485  0.00  0.00    +0.000 HD
ENDBRANCH   1   8
BRANCH   5  17
ATOM     17  C   UNL     1      38.532  23.947  35.899  0.00  0.00    +0.000 C 
ATOM     18  C   UNL     1      38.082  25.230  36.364  0.00  0.00    +0.000 C 
ATOM     19  C   UNL     1      37.559  23.921  37.030  0.00  0.00    +0.000 C 
ATOM     20  H   UNL     1      39.611  23.677  36.179  0.00  0.00    +0.000 HD
ATOM     21  H   UNL     1      37.313  25.787  35.814  0.00  0.00    +0.000 HD
ATOM     22  H   UNL     1      38.702  25.889  36.996  0.00  0.00    +0.000 HD
BRANCH  19  23
ATOM     23  C   UNL     1      36.053  23.968  36.941  0.00  0.00    +0.000 A 
ATOM     24  C   UNL     1      35.054  23.026  37.096  0.00  0.00    +0.000 A 
ATOM     25  N   UNL     1      33.899  23.689  36.890  0.00  0.00    +0.000 NA
ATOM     26  C   UNL     1      34.180  24.979  36.622  0.00  0.00    +0.000 A 
ATOM     27  N   UNL     1      35.530  25.160  36.652  0.00  0.00    +0.000 N 
ATOM     28  H   UNL     1      35.924  26.116  36.462  0.00  0.00    +0.000 HD
ENDBRANCH  19  23
BRANCH  19  29
ATOM     29  C   UNL     1      38.123  23.766  38.427  0.00  0.00    +0.000 C 
ATOM     30  F   UNL     1      37.513  22.703  39.065  0.00  0.00    +0.000 F 
ATOM     31  F   UNL     1      39.511  23.341  38.305  0.00  0.00    +0.000 F 
ATOM     32  F   UNL     1      38.140  24.900  39.143  0.00  0.00    +0.000 F 
ENDBRANCH  19  29
ENDBRANCH   5  17
TORSDOF 4
