
 OpenBabel03262517513D

 21 23  0  0  0  0  0  0  0  0999 V2000
   37.4420   23.8120   37.0960 C   0  0  0  0  0  0  0  0  0  0  0  0
   38.4310   23.1510   36.3160 C   0  0  0  0  0  0  0  0  0  0  0  0
   39.6070   22.7680   36.9120 C   0  0  0  0  0  0  0  0  0  0  0  0
   39.7380   23.0720   38.2560 N   0  0  0  0  0  0  0  0  0  0  0  0
   38.8070   23.6910   38.9690 C   0  0  0  0  0  0  0  0  0  0  0  0
   37.6660   24.0570   38.3900 N   0  0  0  0  0  0  0  0  0  0  0  0
   36.5210   24.1040   36.6130 H   0  0  0  0  0  0  0  0  0  0  0  0
   39.0500   23.8600   40.0080 H   0  0  0  0  0  0  0  0  0  0  0  0
   38.1380   23.0130   34.9450 N   0  0  0  0  0  0  0  0  0  0  0  0
   38.3010   23.8420   33.8530 C   0  0  0  0  0  0  0  0  0  0  0  0
   37.8100   23.2440   32.7490 N   0  0  0  0  0  0  0  0  0  0  0  0
   37.3300   22.0190   33.1580 C   0  0  0  0  0  0  0  0  0  0  0  0
   37.5390   21.8920   34.5080 N   0  0  0  0  0  0  0  0  0  0  0  0
   38.7780   24.8200   34.0160 H   0  0  0  0  0  0  0  0  0  0  0  0
   36.8780   21.3240   32.4780 H   0  0  0  0  0  0  0  0  0  0  0  0
   40.6790   22.0680   36.3040 C   0  0  0  0  0  0  0  0  0  0  0  0
   41.6270   21.3630   37.0650 C   0  0  0  0  0  0  0  0  0  0  0  0
   42.6000   20.8010   36.3430 N   0  0  0  0  0  0  0  0  0  0  0  0
   42.3400   21.1090   35.0770 C   0  0  0  0  0  0  0  0  0  0  0  0
   41.2360   21.8280   35.1240 N   0  0  0  0  0  0  0  0  0  0  0  0
   40.8230   22.1540   34.2480 H   0  0  0  0  0  0  0  0  0  0  0  0
  1  6  1  0  0  0  0
  2  3  1  0  0  0  0
  2  1  2  0  0  0  0
  3  4  2  0  0  0  0
  4  5  1  0  0  0  0
  5  8  1  0  0  0  0
  6  5  2  0  0  0  0
  7  1  1  0  0  0  0
  9  2  1  0  0  0  0
 10 14  1  0  0  0  0
 10  9  1  0  0  0  0
 11 12  1  0  0  0  0
 11 10  2  0  0  0  0
 12 13  2  0  0  0  0
 13  9  1  0  0  0  0
 15 12  1  0  0  0  0
 16  3  1  0  0  0  0
 16 17  2  0  0  0  0
 18 17  1  0  0  0  0
 19 20  1  0  0  0  0
 19 18  2  0  0  0  0
 20 16  1  0  0  0  0
 21 20  1  0  0  0  0
M  END
>  <minimizedAffinity>
-3.91029525

>  <minimizedRMSD>
1.75367332

$$$$
