
 OpenBabel03262518183D

 38 41  0  0  1  0  0  0  0  0999 V2000
   42.6320   22.1670   33.5870 C   0  0  1  0  0  0  0  0  0  0  0  0
   41.3920   22.4480   32.7760 C   0  0  0  0  0  0  0  0  0  0  0  0
   41.6470   22.9490   31.3930 C   0  0  0  0  0  0  0  0  0  0  0  0
   42.8390   23.8520   31.3470 C   0  0  0  0  0  0  0  0  0  0  0  0
   43.1360   24.4200   32.7020 C   0  0  0  0  0  0  0  0  0  0  0  0
   43.6020   23.3300   33.6080 C   0  0  1  0  0  0  0  0  0  0  0  0
   43.0930   21.2420   33.1550 H   0  0  0  0  0  0  0  0  0  0  0  0
   40.8090   23.2270   33.3270 H   0  0  0  0  0  0  0  0  0  0  0  0
   40.7870   21.5310   32.8110 H   0  0  0  0  0  0  0  0  0  0  0  0
   41.7620   22.0980   30.6930 H   0  0  0  0  0  0  0  0  0  0  0  0
   40.6990   23.4640   31.0620 H   0  0  0  0  0  0  0  0  0  0  0  0
   42.6790   24.6430   30.5830 H   0  0  0  0  0  0  0  0  0  0  0  0
   43.7110   23.2520   31.0380 H   0  0  0  0  0  0  0  0  0  0  0  0
   43.9190   25.2070   32.6270 H   0  0  0  0  0  0  0  0  0  0  0  0
   42.2470   24.9400   33.1420 H   0  0  0  0  0  0  0  0  0  0  0  0
   44.5450   22.9010   33.1450 H   0  0  0  0  0  0  0  0  0  0  0  0
   42.5510   20.8740   36.9940 C   0  0  0  0  0  0  0  0  0  0  0  0
   41.4100   21.4800   37.5500 C   0  0  0  0  0  0  0  0  0  0  0  0
   40.6730   22.3270   36.7500 C   0  0  0  0  0  0  0  0  0  0  0  0
   41.1020   22.5220   35.4660 N   0  0  0  0  0  0  0  0  0  0  0  0
   42.1870   21.9320   34.9770 C   0  0  0  0  0  0  0  0  0  0  0  0
   42.9010   21.1190   35.7320 N   0  0  0  0  0  0  0  0  0  0  0  0
   43.1460   20.2070   37.5960 H   0  0  0  0  0  0  0  0  0  0  0  0
   41.1810   21.2390   38.5790 H   0  0  0  0  0  0  0  0  0  0  0  0
   39.4750   22.9510   37.3140 C   0  0  0  0  0  0  0  0  0  0  0  0
   38.5730   23.7290   36.5800 C   0  0  0  0  0  0  0  0  0  0  0  0
   37.6040   24.0940   37.4680 N   0  0  0  0  0  0  0  0  0  0  0  0
   37.9430   23.5510   38.6430 C   0  0  0  0  0  0  0  0  0  0  0  0
   39.0510   22.8600   38.6060 N   0  0  0  0  0  0  0  0  0  0  0  0
   38.6630   23.9650   35.5320 H   0  0  0  0  0  0  0  0  0  0  0  0
   37.3900   23.6350   39.5920 H   0  0  0  0  0  0  0  0  0  0  0  0
   39.5840   22.3220   39.3240 H   0  0  0  0  0  0  0  0  0  0  0  0
   43.9950   23.7830   34.9410 C   0  0  0  0  0  0  0  0  0  0  0  0
   45.2700   23.5440   35.4700 C   0  0  0  0  0  0  0  0  0  0  0  0
   45.4010   24.0780   36.7200 N   0  0  0  0  0  0  0  0  0  0  0  0
   44.2010   24.6580   36.9760 C   0  0  0  0  0  0  0  0  0  0  0  0
   43.3850   24.4770   35.9210 N   0  0  0  0  0  0  0  0  0  0  0  0
   42.4230   24.8250   35.8560 H   0  0  0  0  0  0  0  0  0  0  0  0
  1  7  1  6  0  0  0
  1  6  1  0  0  0  0
  1 21  1  0  0  0  0
  2  9  1  0  0  0  0
  2  8  1  0  0  0  0
  2  1  1  0  0  0  0
  3  2  1  0  0  0  0
  4  3  1  0  0  0  0
  4  5  1  0  0  0  0
  5 15  1  0  0  0  0
  5  6  1  0  0  0  0
  6 16  1  6  0  0  0
  6 33  1  0  0  0  0
 10  3  1  0  0  0  0
 11  3  1  0  0  0  0
 12  4  1  0  0  0  0
 13  4  1  0  0  0  0
 14  5  1  0  0  0  0
 17 18  1  0  0  0  0
 17 23  1  0  0  0  0
 18 24  1  0  0  0  0
 19 25  1  0  0  0  0
 19 18  2  0  0  0  0
 20 19  1  0  0  0  0
 21 20  2  0  0  0  0
 21 22  1  0  0  0  0
 22 17  2  0  0  0  0
 25 29  1  0  0  0  0
 26 25  2  0  0  0  0
 26 27  1  0  0  0  0
 27 28  2  0  0  0  0
 28 31  1  0  0  0  0
 29 28  1  0  0  0  0
 29 32  1  0  0  0  0
 30 26  1  0  0  0  0
 33 34  2  0  0  0  0
 33 37  1  0  0  0  0
 34 35  1  0  0  0  0
 35 36  2  0  0  0  0
 37 36  1  0  0  0  0
 38 37  1  0  0  0  0
M  END
>  <minimizedAffinity>
-4.50169754

>  <minimizedRMSD>
1.27563751

$$$$
