
 OpenBabel03262519453D

 31 33  0  0  1  0  0  0  0  0999 V2000
   38.4700   25.3270   33.7690 C   0  0  0  0  0  0  0  0  0  0  0  0
   39.3750   24.6450   33.9090 H   0  0  0  0  0  0  0  0  0  0  0  0
   38.8620   26.2410   33.3990 H   0  0  0  0  0  0  0  0  0  0  0  0
   37.5790   24.6400   32.9380 N   0  0  0  0  0  0  0  0  0  0  0  0
   37.2210   23.3300   32.8280 C   0  0  0  0  0  0  0  0  0  0  0  0
   36.2820   23.0650   31.8700 C   0  0  0  0  0  0  0  0  0  0  0  0
   36.0320   24.2530   31.3480 N   0  0  0  0  0  0  0  0  0  0  0  0
   36.8090   25.2100   31.9850 C   0  0  0  0  0  0  0  0  0  0  0  0
   37.6410   22.5430   33.4470 H   0  0  0  0  0  0  0  0  0  0  0  0
   35.8400   22.1340   31.5900 H   0  0  0  0  0  0  0  0  0  0  0  0
   36.6370   26.5630   31.5000 C   0  0  0  0  0  0  0  0  0  0  0  0
   36.0910   27.6440   32.1980 C   0  0  0  0  0  0  0  0  0  0  0  0
   36.0460   28.7970   31.5200 N   0  0  0  0  0  0  0  0  0  0  0  0
   36.5740   28.5130   30.3200 C   0  0  0  0  0  0  0  0  0  0  0  0
   36.8940   27.2180   30.3680 N   0  0  0  0  0  0  0  0  0  0  0  0
   37.3160   26.8280   29.5150 H   0  0  0  0  0  0  0  0  0  0  0  0
   37.9400   25.5550   35.1670 C   0  0  1  0  0  0  0  0  0  0  0  0
   36.8470   25.4100   35.0900 H   0  0  0  0  0  0  0  0  0  0  0  0
   38.5410   23.5030   38.2870 C   0  0  0  0  0  0  0  0  0  0  0  0
   37.9240   24.4160   37.4270 C   0  0  0  0  0  0  0  0  0  0  0  0
   38.5170   24.5980   36.1350 C   0  0  0  0  0  0  0  0  0  0  0  0
   39.6360   23.8790   35.8230 N   0  0  0  0  0  0  0  0  0  0  0  0
   40.1920   23.0180   36.6740 C   0  0  0  0  0  0  0  0  0  0  0  0
   39.6290   22.8350   37.9200 N   0  0  0  0  0  0  0  0  0  0  0  0
   38.0680   23.3950   39.2460 H   0  0  0  0  0  0  0  0  0  0  0  0
   37.0360   24.9840   37.6810 H   0  0  0  0  0  0  0  0  0  0  0  0
   41.0870   22.4560   36.4000 H   0  0  0  0  0  0  0  0  0  0  0  0
   38.2080   26.9870   35.5820 C   0  0  0  0  0  0  0  0  0  0  0  0
   37.5920   27.6400   34.9100 H   0  0  0  0  0  0  0  0  0  0  0  0
   37.9520   27.1810   36.6250 H   0  0  0  0  0  0  0  0  0  0  0  0
   39.2780   27.2460   35.3540 H   0  0  0  0  0  0  0  0  0  0  0  0
  1  2  1  0  0  0  0
  1 17  1  0  0  0  0
  3  1  1  0  0  0  0
  4  1  1  0  0  0  0
  5  4  1  0  0  0  0
  5  9  1  0  0  0  0
  6  5  2  0  0  0  0
  7  6  1  0  0  0  0
  7  8  2  0  0  0  0
  8  4  1  0  0  0  0
 10  6  1  0  0  0  0
 11  8  1  0  0  0  0
 11 12  2  0  0  0  0
 13 12  1  0  0  0  0
 14 15  1  0  0  0  0
 14 13  2  0  0  0  0
 15 11  1  0  0  0  0
 16 15  1  0  0  0  0
 17 18  1  6  0  0  0
 17 28  1  0  0  0  0
 17 21  1  0  0  0  0
 19 25  1  0  0  0  0
 20 26  1  0  0  0  0
 20 19  2  0  0  0  0
 21 20  1  0  0  0  0
 22 21  2  0  0  0  0
 22 23  1  0  0  0  0
 23 24  2  0  0  0  0
 24 19  1  0  0  0  0
 27 23  1  0  0  0  0
 28 30  1  0  0  0  0
 29 28  1  0  0  0  0
 31 28  1  0  0  0  0
M  END
>  <minimizedAffinity>
-4.79488182

>  <minimizedRMSD>
3.83041477

$$$$
