
 OpenBabel03262519593D

 32 35  0  0  1  0  0  0  0  0999 V2000
   37.7410   24.4000   33.1120 C   0  0  0  0  0  0  0  0  0  0  0  0
   37.0000   23.4260   32.4460 C   0  0  0  0  0  0  0  0  0  0  0  0
   37.7800   22.3070   32.5400 N   0  0  0  0  0  0  0  0  0  0  0  0
   38.8800   22.6360   33.2110 C   0  0  0  0  0  0  0  0  0  0  0  0
   38.8800   23.9150   33.5740 N   0  0  0  0  0  0  0  0  0  0  0  0
   36.0360   23.5960   31.9870 H   0  0  0  0  0  0  0  0  0  0  0  0
   39.5790   21.7980   33.3420 H   0  0  0  0  0  0  0  0  0  0  0  0
   37.3220   25.7850   33.2730 C   0  0  0  0  0  0  0  0  0  0  0  0
   37.0880   26.5790   32.1300 C   0  0  0  0  0  0  0  0  0  0  0  0
   36.6800   27.9150   32.3320 C   0  0  0  0  0  0  0  0  0  0  0  0
   36.5400   28.3420   33.6140 N   0  0  0  0  0  0  0  0  0  0  0  0
   36.7740   27.5490   34.6820 C   0  0  0  0  0  0  0  0  0  0  0  0
   37.1640   26.2730   34.5200 N   0  0  0  0  0  0  0  0  0  0  0  0
   37.2240   26.1570   31.1480 H   0  0  0  0  0  0  0  0  0  0  0  0
   36.4930   28.5480   31.4750 H   0  0  0  0  0  0  0  0  0  0  0  0
   36.6190   28.0350   35.6350 H   0  0  0  0  0  0  0  0  0  0  0  0
   39.9360   24.5080   34.3040 C   0  0  1  0  0  0  0  0  0  0  0  0
   41.3310   24.1740   34.2290 C   0  0  0  0  0  0  0  0  0  0  0  0
   40.7880   25.4570   33.5290 C   0  0  1  0  0  0  0  0  0  0  0  0
   39.5800   24.8950   35.3230 H   0  0  0  0  0  0  0  0  0  0  0  0
   41.6860   23.4040   33.5320 H   0  0  0  0  0  0  0  0  0  0  0  0
   42.0300   24.3310   35.0680 H   0  0  0  0  0  0  0  0  0  0  0  0
   41.1840   25.3530   32.0760 C   0  0  0  0  0  0  0  0  0  0  0  0
   40.4750   25.2480   30.8940 C   0  0  0  0  0  3  0  0  0  0  0  0
   41.4050   25.1910   29.9210 N   0  0  0  0  0  0  0  0  0  0  0  0
   42.6280   25.2570   30.4830 C   0  0  0  0  0  3  0  0  0  0  0  0
   42.4960   25.3580   31.8350 N   0  0  0  0  0  0  0  0  0  0  0  0
   43.3600   25.4210   32.4320 H   0  0  0  0  0  0  0  0  0  0  0  0
   41.2660   26.7030   34.2450 C   0  0  0  0  0  0  0  0  0  0  0  0
   41.1550   27.7980   33.4090 F   0  0  0  0  0  0  0  0  0  0  0  0
   40.3220   26.9950   35.3160 F   0  0  0  0  0  0  0  0  0  0  0  0
   42.4670   26.5770   34.8280 F   0  0  0  0  0  0  0  0  0  0  0  0
  1  8  1  0  0  0  0
  1  5  1  0  0  0  0
  2  3  1  0  0  0  0
  2  1  2  0  0  0  0
  3  4  2  0  0  0  0
  4  7  1  0  0  0  0
  4  5  1  0  0  0  0
  5 17  1  0  0  0  0
  6  2  1  0  0  0  0
  8 13  1  0  0  0  0
  9 10  1  0  0  0  0
  9  8  2  0  0  0  0
 10 11  2  0  0  0  0
 11 12  1  0  0  0  0
 12 16  1  0  0  0  0
 13 12  2  0  0  0  0
 14  9  1  0  0  0  0
 15 10  1  0  0  0  0
 17 20  1  1  0  0  0
 18 17  1  0  0  0  0
 18 22  1  0  0  0  0
 19 18  1  0  0  0  0
 19 29  1  1  0  0  0
 19 17  1  0  0  0  0
 21 18  1  0  0  0  0
 23 19  1  0  0  0  0
 24 23  2  0  0  0  0
 25 26  2  0  0  0  0
 25 24  1  0  0  0  0
 26 27  1  0  0  0  0
 27 23  1  0  0  0  0
 27 28  1  0  0  0  0
 29 32  1  0  0  0  0
 29 31  1  0  0  0  0
 30 29  1  0  0  0  0
M  END
>  <minimizedAffinity>
-3.84212899

>  <minimizedRMSD>
5.36828041

$$$$
