
 OpenBabel03262519573D

 29 32  0  0  1  0  0  0  0  0999 V2000
   38.1520   23.8730   34.4980 C   0  0  0  0  0  0  0  0  0  0  0  0
   38.3270   25.0920   33.8690 C   0  0  0  0  0  0  0  0  0  0  0  0
   37.9060   24.8610   32.5820 N   0  0  0  0  0  0  0  0  0  0  0  0
   37.5190   23.5930   32.4980 C   0  0  0  0  0  0  0  0  0  0  0  0
   37.6580   22.9440   33.6740 N   0  0  0  0  0  0  0  0  0  0  0  0
   38.7170   26.0050   34.3400 H   0  0  0  0  0  0  0  0  0  0  0  0
   37.1520   23.2350   31.5330 H   0  0  0  0  0  0  0  0  0  0  0  0
   38.4610   23.6130   35.8930 C   0  0  0  0  0  0  0  0  0  0  0  0
   39.6740   23.0140   36.2550 C   0  0  0  0  0  0  0  0  0  0  0  0
   39.9240   22.7840   37.6270 C   0  0  0  0  0  0  0  0  0  0  0  0
   38.9740   23.1560   38.5070 N   0  0  0  0  0  0  0  0  0  0  0  0
   37.8150   23.7300   38.1310 C   0  0  0  0  0  0  0  0  0  0  0  0
   37.5490   23.9620   36.8300 N   0  0  0  0  0  0  0  0  0  0  0  0
   40.4010   22.7380   35.4930 H   0  0  0  0  0  0  0  0  0  0  0  0
   40.8620   22.3250   37.8740 H   0  0  0  0  0  0  0  0  0  0  0  0
   37.1450   23.9780   38.9300 H   0  0  0  0  0  0  0  0  0  0  0  0
   37.3180   21.5600   33.8770 C   0  0  1  0  0  0  0  0  0  0  0  0
   36.2070   21.1470   34.7380 C   0  0  0  0  0  0  0  0  0  0  0  0
   35.9760   21.1900   33.2510 C   0  0  2  0  0  0  0  0  0  0  0  0
   38.1680   20.8850   33.7810 H   0  0  0  0  0  0  0  0  0  0  0  0
   36.2390   20.1600   35.2250 H   0  0  0  0  0  0  0  0  0  0  0  0
   35.6010   21.8720   35.3430 H   0  0  0  0  0  0  0  0  0  0  0  0
   35.3270   21.9770   32.8510 H   0  0  0  0  0  0  0  0  0  0  0  0
   36.0330   19.8830   32.5090 C   0  0  0  0  0  0  0  0  0  0  0  0
   35.4130   18.6950   32.8940 C   0  0  0  0  0  3  0  0  0  0  0  0
   35.7160   17.7810   31.9610 N   0  0  0  0  0  0  0  0  0  0  0  0
   36.4930   18.4070   31.0470 C   0  0  0  0  0  3  0  0  0  0  0  0
   36.7030   19.6960   31.3590 N   0  0  0  0  0  0  0  0  0  0  0  0
   37.2760   20.3560   30.7820 H   0  0  0  0  0  0  0  0  0  0  0  0
  1  8  1  0  0  0  0
  2  6  1  0  0  0  0
  2  1  2  0  0  0  0
  3  2  1  0  0  0  0
  4  3  2  0  0  0  0
  4  5  1  0  0  0  0
  5 17  1  0  0  0  0
  5  1  1  0  0  0  0
  7  4  1  0  0  0  0
  8  9  2  0  0  0  0
  8 13  1  0  0  0  0
  9 10  1  0  0  0  0
 10 15  1  0  0  0  0
 10 11  2  0  0  0  0
 12 11  1  0  0  0  0
 12 16  1  0  0  0  0
 13 12  2  0  0  0  0
 14  9  1  0  0  0  0
 17 20  1  6  0  0  0
 17 18  1  0  0  0  0
 18 21  1  0  0  0  0
 18 22  1  0  0  0  0
 19 23  1  6  0  0  0
 19 17  1  0  0  0  0
 19 18  1  0  0  0  0
 24 25  2  0  0  0  0
 24 19  1  0  0  0  0
 26 25  1  0  0  0  0
 27 28  1  0  0  0  0
 27 26  2  0  0  0  0
 28 24  1  0  0  0  0
 29 28  1  0  0  0  0
M  END
>  <minimizedAffinity>
-4.57604218

>  <minimizedRMSD>
0.875252366

$$$$
