
 OpenBabel03262517473D

 28 31  0  0  0  0  0  0  0  0999 V2000
   39.7140   22.7940   37.9000 C   0  0  0  0  0  0  0  0  0  0  0  0
   38.7810   23.5130   38.6480 C   0  0  0  0  0  0  0  0  0  0  0  0
   37.7750   24.2140   37.9490 C   0  0  0  0  0  0  0  0  0  0  0  0
   37.8050   24.1250   36.5760 N   0  0  0  0  0  0  0  0  0  0  0  0
   38.7240   23.4190   35.8930 C   0  0  0  0  0  0  0  0  0  0  0  0
   39.6690   22.7610   36.5700 N   0  0  0  0  0  0  0  0  0  0  0  0
   38.5920   23.4460   34.4790 N   0  0  0  0  0  0  0  0  0  0  0  0
   39.0110   22.4020   33.6940 C   0  0  0  0  0  0  0  0  0  0  0  0
   38.7650   22.6950   32.3940 N   0  0  0  0  0  0  0  0  0  0  0  0
   38.1900   23.9190   32.3270 C   0  0  0  0  0  0  0  0  0  0  0  0
   37.7100   24.7700   31.3240 C   0  0  0  0  0  0  0  0  0  0  0  0
   37.1820   25.9590   31.6220 N   0  0  0  0  0  0  0  0  0  0  0  0
   37.1090   26.3470   32.8960 C   0  0  0  0  0  0  0  0  0  0  0  0
   37.5610   25.5540   33.8930 N   0  0  0  0  0  0  0  0  0  0  0  0
   38.0950   24.3590   33.6330 C   0  0  0  0  0  0  0  0  0  0  0  0
   37.8660   24.1940   30.0200 N   0  0  0  0  0  0  0  0  0  0  0  0
   40.4610   22.2760   38.4900 H   0  0  0  0  0  0  0  0  0  0  0  0
   38.7380   23.5970   39.7250 H   0  0  0  0  0  0  0  0  0  0  0  0
   36.9870   24.8110   38.3770 H   0  0  0  0  0  0  0  0  0  0  0  0
   39.4630   21.4830   33.9980 H   0  0  0  0  0  0  0  0  0  0  0  0
   36.9830   24.1620   29.4420 H   0  0  0  0  0  0  0  0  0  0  0  0
   38.7660   23.8350   29.6610 H   0  0  0  0  0  0  0  0  0  0  0  0
   36.5350   27.6450   33.2390 C   0  0  0  0  0  0  0  0  0  0  0  0
   36.0360   28.5930   32.3810 C   0  0  0  0  0  0  0  0  0  0  0  0
   35.5930   29.6630   33.1010 N   0  0  0  0  0  0  0  0  0  0  0  0
   35.8150   29.3850   34.4180 C   0  0  0  0  0  0  0  0  0  0  0  0
   36.3820   28.1650   34.4780 N   0  0  0  0  0  0  0  0  0  0  0  0
   36.6820   27.6520   35.3480 H   0  0  0  0  0  0  0  0  0  0  0  0
  1 17  1  0  0  0  0
  1  2  1  0  0  0  0
  2 18  1  0  0  0  0
  3 19  1  0  0  0  0
  3  2  2  0  0  0  0
  4  3  1  0  0  0  0
  5  6  1  0  0  0  0
  5  4  2  0  0  0  0
  6  1  2  0  0  0  0
  7  5  1  0  0  0  0
  8 20  1  0  0  0  0
  8  7  1  0  0  0  0
  9  8  2  0  0  0  0
 10  9  1  0  0  0  0
 10 15  1  0  0  0  0
 11 12  1  0  0  0  0
 11 10  2  0  0  0  0
 12 13  2  0  0  0  0
 13 23  1  0  0  0  0
 13 14  1  0  0  0  0
 15 14  2  0  0  0  0
 15  7  1  0  0  0  0
 16 11  1  0  0  0  0
 21 16  1  0  0  0  0
 22 16  1  0  0  0  0
 23 27  1  0  0  0  0
 24 25  1  0  0  0  0
 24 23  2  0  0  0  0
 25 26  2  0  0  0  0
 26 27  1  0  0  0  0
 27 28  1  0  0  0  0
M  END
>  <minimizedAffinity>
-5.51800013

>  <minimizedRMSD>
1.70014918

$$$$
