
 OpenBabel03262520003D

 32 35  0  0  1  0  0  0  0  0999 V2000
   39.6590   22.8890   32.9060 C   0  0  0  0  0  0  0  0  0  0  0  0
   39.3300   21.5500   32.7000 C   0  0  0  0  0  0  0  0  0  0  0  0
   37.9990   21.4950   33.0060 N   0  0  0  0  0  0  0  0  0  0  0  0
   37.6130   22.7180   33.3580 C   0  0  0  0  0  0  0  0  0  0  0  0
   38.6140   23.5920   33.3040 N   0  0  0  0  0  0  0  0  0  0  0  0
   40.0270   20.7910   32.3730 H   0  0  0  0  0  0  0  0  0  0  0  0
   36.5490   22.7800   33.6250 H   0  0  0  0  0  0  0  0  0  0  0  0
   40.9900   23.4470   32.7170 C   0  0  0  0  0  0  0  0  0  0  0  0
   41.9270   23.3850   33.7710 C   0  0  0  0  0  0  0  0  0  0  0  0
   43.2070   23.9350   33.5440 C   0  0  0  0  0  0  0  0  0  0  0  0
   43.4470   24.4850   32.3240 N   0  0  0  0  0  0  0  0  0  0  0  0
   42.5220   24.5250   31.3410 C   0  0  0  0  0  0  0  0  0  0  0  0
   41.2950   24.0080   31.5300 N   0  0  0  0  0  0  0  0  0  0  0  0
   41.6510   22.9290   34.7070 H   0  0  0  0  0  0  0  0  0  0  0  0
   43.9460   23.9020   34.3320 H   0  0  0  0  0  0  0  0  0  0  0  0
   42.8650   24.9950   30.4310 H   0  0  0  0  0  0  0  0  0  0  0  0
   38.4590   24.9600   33.6260 C   0  0  1  0  0  0  0  0  0  0  0  0
   37.4360   25.5430   34.4500 C   0  0  0  0  0  0  0  0  0  0  0  0
   38.8770   25.3380   35.0080 C   0  0  1  0  0  0  0  0  0  0  0  0
   38.8610   25.6380   32.7940 H   0  0  0  0  0  0  0  0  0  0  0  0
   36.6780   24.9120   34.9320 H   0  0  0  0  0  0  0  0  0  0  0  0
   37.0970   26.5870   34.3340 H   0  0  0  0  0  0  0  0  0  0  0  0
   38.7360   24.5120   36.2640 C   0  0  0  0  0  0  0  0  0  0  0  0
   37.7980   24.4630   37.2780 C   0  0  0  0  0  3  0  0  0  0  0  0
   38.2330   23.5090   38.1230 N   0  0  0  0  0  0  0  0  0  0  0  0
   39.3850   22.9980   37.6490 C   0  0  0  0  0  3  0  0  0  0  0  0
   39.7060   23.6240   36.4810 N   0  0  0  0  0  0  0  0  0  0  0  0
   40.5830   23.3440   35.9720 H   0  0  0  0  0  0  0  0  0  0  0  0
   39.5800   26.6680   35.1810 C   0  0  0  0  0  0  0  0  0  0  0  0
   40.9450   26.4710   35.2640 F   0  0  0  0  0  0  0  0  0  0  0  0
   39.4180   27.4240   33.9460 F   0  0  0  0  0  0  0  0  0  0  0  0
   39.0760   27.4350   36.1590 F   0  0  0  0  0  0  0  0  0  0  0  0
  1  5  1  0  0  0  0
  2  1  2  0  0  0  0
  2  3  1  0  0  0  0
  3  4  2  0  0  0  0
  4  7  1  0  0  0  0
  5  4  1  0  0  0  0
  5 17  1  0  0  0  0
  6  2  1  0  0  0  0
  8  1  1  0  0  0  0
  8  9  1  0  0  0  0
  9 14  1  0  0  0  0
 10  9  2  0  0  0  0
 10 15  1  0  0  0  0
 11 10  1  0  0  0  0
 12 13  1  0  0  0  0
 12 11  2  0  0  0  0
 13  8  2  0  0  0  0
 16 12  1  0  0  0  0
 17 20  1  6  0  0  0
 17 18  1  0  0  0  0
 17 19  1  0  0  0  0
 18 21  1  0  0  0  0
 18 19  1  0  0  0  0
 19 29  1  1  0  0  0
 19 23  1  0  0  0  0
 22 18  1  0  0  0  0
 23 27  1  0  0  0  0
 23 24  2  0  0  0  0
 24 25  1  0  0  0  0
 26 25  2  0  0  0  0
 27 26  1  0  0  0  0
 28 27  1  0  0  0  0
 29 30  1  0  0  0  0
 29 32  1  0  0  0  0
 31 29  1  0  0  0  0
M  END
>  <minimizedAffinity>
-4.26148415

>  <minimizedRMSD>
4.06078386

$$$$
