
 OpenBabel03262519503D

 21 22  0  0  0  0  0  0  0  0999 V2000
   37.8590   25.9680   34.1820 C   0  0  0  0  0  0  0  0  0  0  0  0
   37.3530   25.7430   32.8380 C   0  0  0  0  0  0  0  0  0  0  0  0
   37.3080   24.4260   32.4920 C   0  0  0  0  0  0  0  0  0  0  0  0
   37.7140   23.4350   33.3900 N   0  0  0  0  0  0  0  0  0  0  0  0
   38.1620   23.7150   34.6060 C   0  0  0  0  0  0  0  0  0  0  0  0
   38.2420   24.9730   35.0130 N   0  0  0  0  0  0  0  0  0  0  0  0
   38.0000   26.9300   34.7000 H   0  0  0  0  0  0  0  0  0  0  0  0
   38.3880   22.7550   35.0410 H   0  0  0  0  0  0  0  0  0  0  0  0
   36.9980   27.0280   32.2990 C   0  0  0  0  0  0  0  0  0  0  0  0
   37.8100   27.9590   31.6630 C   0  0  0  0  0  0  0  0  0  0  0  0
   37.0980   29.0090   31.2390 N   0  0  0  0  0  0  0  0  0  0  0  0
   35.8180   28.8090   31.5750 C   0  0  0  0  0  0  0  0  0  0  0  0
   35.8130   27.6420   32.1910 N   0  0  0  0  0  0  0  0  0  0  0  0
   34.8710   27.3630   32.5400 H   0  0  0  0  0  0  0  0  0  0  0  0
   36.8610   24.2600   31.0730 C   0  0  0  0  0  0  0  0  0  0  0  0
   36.1040   23.4530   31.0370 H   0  0  0  0  0  0  0  0  0  0  0  0
   36.4260   25.2130   30.7430 H   0  0  0  0  0  0  0  0  0  0  0  0
   38.1120   23.9090   30.2460 C   0  0  0  0  0  0  0  0  0  0  0  0
   38.1430   24.3710   29.2690 H   0  0  0  0  0  0  0  0  0  0  0  0
   39.0350   23.8800   30.8410 H   0  0  0  0  0  0  0  0  0  0  0  0
   37.9040   22.8020   29.9880 H   0  0  0  0  0  0  0  0  0  0  0  0
  1  7  1  0  0  0  0
  1  6  1  0  0  0  0
  2  1  2  0  0  0  0
  3  2  1  0  0  0  0
  3  4  2  0  0  0  0
  4  5  1  0  0  0  0
  5  6  2  0  0  0  0
  5  8  1  0  0  0  0
  9  2  1  0  0  0  0
 10  9  2  0  0  0  0
 11 12  2  0  0  0  0
 11 10  1  0  0  0  0
 12 13  1  0  0  0  0
 13  9  1  0  0  0  0
 13 14  1  0  0  0  0
 15  3  1  0  0  0  0
 16 15  1  0  0  0  0
 17 15  1  0  0  0  0
 18 20  1  0  0  0  0
 18 15  1  0  0  0  0
 19 18  1  0  0  0  0
 21 18  1  0  0  0  0
M  END
>  <minimizedAffinity>
-2.91773224

>  <minimizedRMSD>
7.99359608

$$$$
