
 OpenBabel03262520003D

 32 35  0  0  1  0  0  0  0  0999 V2000
   39.1920   23.3660   32.4130 C   0  0  0  0  0  0  0  0  0  0  0  0
   39.7990   22.4400   31.5690 C   0  0  0  0  0  0  0  0  0  0  0  0
   39.5830   21.2430   32.1980 N   0  0  0  0  0  0  0  0  0  0  0  0
   38.9020   21.4920   33.3160 C   0  0  0  0  0  0  0  0  0  0  0  0
   38.6510   22.7870   33.4700 N   0  0  0  0  0  0  0  0  0  0  0  0
   40.3170   22.6350   30.6360 H   0  0  0  0  0  0  0  0  0  0  0  0
   38.6690   20.6010   33.9110 H   0  0  0  0  0  0  0  0  0  0  0  0
   39.1620   24.8000   32.1690 C   0  0  0  0  0  0  0  0  0  0  0  0
   40.1550   25.6250   32.7370 C   0  0  0  0  0  0  0  0  0  0  0  0
   40.0890   27.0130   32.4670 C   0  0  0  0  0  0  0  0  0  0  0  0
   39.0720   27.4520   31.6780 N   0  0  0  0  0  0  0  0  0  0  0  0
   38.1410   26.6240   31.1540 C   0  0  0  0  0  0  0  0  0  0  0  0
   38.1760   25.3040   31.3910 N   0  0  0  0  0  0  0  0  0  0  0  0
   40.9190   25.1750   33.3500 H   0  0  0  0  0  0  0  0  0  0  0  0
   40.8390   27.6540   32.8940 H   0  0  0  0  0  0  0  0  0  0  0  0
   37.4060   27.1340   30.5520 H   0  0  0  0  0  0  0  0  0  0  0  0
   37.9390   23.3100   34.5770 C   0  0  1  0  0  0  0  0  0  0  0  0
   37.7810   22.6880   35.8630 C   0  0  0  0  0  0  0  0  0  0  0  0
   38.7990   23.8500   35.6750 C   0  0  1  0  0  0  0  0  0  0  0  0
   37.0710   23.9900   34.2550 H   0  0  0  0  0  0  0  0  0  0  0  0
   36.9330   22.9120   36.5290 H   0  0  0  0  0  0  0  0  0  0  0  0
   38.2430   21.7220   36.0720 H   0  0  0  0  0  0  0  0  0  0  0  0
   40.1290   23.3320   36.1270 C   0  0  0  0  0  0  0  0  0  0  0  0
   41.3830   23.5190   35.6220 N   0  0  0  0  0  0  0  0  0  0  0  0
   42.2290   22.8780   36.3400 O   0  0  0  0  0  0  0  0  0  0  0  0
   41.6380   22.2480   37.3290 C   0  0  0  0  0  0  0  0  0  0  0  0
   41.9110   21.6090   38.1580 H   0  0  0  0  0  0  0  0  0  0  0  0
   40.3110   22.5240   37.2080 N   0  0  0  0  0  0  0  0  0  0  0  0
   38.3210   25.1040   36.3750 C   0  0  0  0  0  0  0  0  0  0  0  0
   39.1460   26.1640   36.0600 F   0  0  0  0  0  0  0  0  0  0  0  0
   37.0420   25.4850   35.7860 F   0  0  0  0  0  0  0  0  0  0  0  0
   38.0960   24.9520   37.6880 F   0  0  0  0  0  0  0  0  0  0  0  0
  1  5  1  0  0  0  0
  2  3  1  0  0  0  0
  2  1  2  0  0  0  0
  3  4  2  0  0  0  0
  4  5  1  0  0  0  0
  4  7  1  0  0  0  0
  5 17  1  0  0  0  0
  6  2  1  0  0  0  0
  8  1  1  0  0  0  0
  8  9  1  0  0  0  0
  9 14  1  0  0  0  0
 10  9  2  0  0  0  0
 10 15  1  0  0  0  0
 11 10  1  0  0  0  0
 12 13  1  0  0  0  0
 12 11  2  0  0  0  0
 13  8  2  0  0  0  0
 16 12  1  0  0  0  0
 17 20  1  6  0  0  0
 17 19  1  0  0  0  0
 17 18  1  0  0  0  0
 18 22  1  0  0  0  0
 18 21  1  0  0  0  0
 19 18  1  0  0  0  0
 19 23  1  0  0  0  0
 19 29  1  1  0  0  0
 23 28  1  0  0  0  0
 24 23  2  0  0  0  0
 24 25  1  0  0  0  0
 25 26  1  0  0  0  0
 26 27  1  0  0  0  0
 28 26  2  0  0  0  0
 29 32  1  0  0  0  0
 30 29  1  0  0  0  0
 31 29  1  0  0  0  0
M  END
>  <minimizedAffinity>
-4.06266689

>  <minimizedRMSD>
3.72818232

$$$$
