REMARK  Name = 
REMARK  4 active torsions:
REMARK  status: ('A' for Active; 'I' for Inactive)
REMARK    1  A    between atoms: C_1  and  C_6
REMARK    2  A    between atoms: N_5  and  C_12
REMARK    3  A    between atoms: C_14  and  C_15
REMARK    4  A    between atoms: C_14  and  C_27
REMARK                            x       y       z     vdW  Elec       q    Type
REMARK                         _______ _______ _______ _____ _____    ______ ____
ROOT
ATOM      1  C   UNL     1      37.871  23.697  33.502  0.00  0.00    +0.000 A 
ATOM      2  C   UNL     1      37.466  22.660  32.666  0.00  0.00    +0.000 A 
ATOM      3  N   UNL     1      37.481  21.563  33.484  0.00  0.00    +0.000 NA
ATOM      4  C   UNL     1      37.869  21.967  34.693  0.00  0.00    +0.000 A 
ATOM      5  N   UNL     1      38.114  23.272  34.729  0.00  0.00    +0.000 N 
ATOM      6  H   UNL     1      37.203  22.722  31.615  0.00  0.00    +0.000 HD
ATOM      7  H   UNL     1      37.921  21.168  35.442  0.00  0.00    +0.000 HD
ENDROOT
BRANCH   1   8
ATOM      8  C   UNL     1      38.017  25.081  33.079  0.00  0.00    +0.000 A 
ATOM      9  C   UNL     1      39.299  25.584  32.771  0.00  0.00    +0.000 A 
ATOM     10  C   UNL     1      39.392  26.935  32.358  0.00  0.00    +0.000 A 
ATOM     11  N   UNL     1      38.238  27.651  32.287  0.00  0.00    +0.000 NA
ATOM     12  C   UNL     1      37.030  27.128  32.592  0.00  0.00    +0.000 A 
ATOM     13  N   UNL     1      36.908  25.851  32.986  0.00  0.00    +0.000 NA
ATOM     14  H   UNL     1      40.151  24.931  32.861  0.00  0.00    +0.000 HD
ATOM     15  H   UNL     1      40.362  27.332  32.120  0.00  0.00    +0.000 HD
ATOM     16  H   UNL     1      36.220  27.830  32.482  0.00  0.00    +0.000 HD
ENDBRANCH   1   8
BRANCH   5  17
ATOM     17  C   UNL     1      38.539  23.947  35.899  0.00  0.00    +0.000 C 
ATOM     18  C   UNL     1      38.077  25.227  36.363  0.00  0.00    +0.000 C 
ATOM     19  C   UNL     1      37.560  23.919  37.029  0.00  0.00    +0.000 C 
ATOM     20  H   UNL     1      39.622  23.689  36.182  0.00  0.00    +0.000 HD
ATOM     21  H   UNL     1      38.685  25.875  37.014  0.00  0.00    +0.000 HD
ATOM     22  H   UNL     1      37.314  25.775  35.809  0.00  0.00    +0.000 HD
BRANCH  19  23
ATOM     23  C   UNL     1      36.066  23.954  36.939  0.00  0.00    +0.000 A 
ATOM     24  N   UNL     1      35.149  22.948  36.842  0.00  0.00    +0.000 NA
ATOM     25  O   UNL     1      33.971  23.451  36.792  0.00  0.00    +0.000 OA
ATOM     26  C   UNL     1      34.007  24.761  36.848  0.00  0.00    +0.000 A 
ATOM     27  H   UNL     1      33.312  25.591  36.840  0.00  0.00    +0.000 HD
ATOM     28  N   UNL     1      35.324  25.097  36.941  0.00  0.00    +0.000 NA
ENDBRANCH  19  23
BRANCH  19  29
ATOM     29  C   UNL     1      38.121  23.767  38.427  0.00  0.00    +0.000 C 
ATOM     30  F   UNL     1      37.517  22.703  39.065  0.00  0.00    +0.000 F 
ATOM     31  F   UNL     1      39.512  23.344  38.307  0.00  0.00    +0.000 F 
ATOM     32  F   UNL     1      38.137  24.901  39.142  0.00  0.00    +0.000 F 
ENDBRANCH  19  29
ENDBRANCH   5  17
TORSDOF 4
