
 OpenBabel03262519573D

 29 32  0  0  1  0  0  0  0  0999 V2000
   38.1510   23.9150   34.5820 C   0  0  0  0  0  0  0  0  0  0  0  0
   38.3060   25.1600   33.9600 C   0  0  0  0  0  0  0  0  0  0  0  0
   37.9010   24.9280   32.6800 N   0  0  0  0  0  0  0  0  0  0  0  0
   37.5470   23.6640   32.5770 C   0  0  0  0  0  0  0  0  0  0  0  0
   37.6890   22.9990   33.7440 N   0  0  0  0  0  0  0  0  0  0  0  0
   38.6690   26.0780   34.4310 H   0  0  0  0  0  0  0  0  0  0  0  0
   37.1850   23.2620   31.6210 H   0  0  0  0  0  0  0  0  0  0  0  0
   38.4570   23.6480   35.9750 C   0  0  0  0  0  0  0  0  0  0  0  0
   39.6810   23.0510   36.3230 C   0  0  0  0  0  0  0  0  0  0  0  0
   39.9370   22.8080   37.6890 C   0  0  0  0  0  0  0  0  0  0  0  0
   38.9970   23.1620   38.5810 N   0  0  0  0  0  0  0  0  0  0  0  0
   37.8230   23.7390   38.2120 C   0  0  0  0  0  0  0  0  0  0  0  0
   37.5480   23.9830   36.9190 N   0  0  0  0  0  0  0  0  0  0  0  0
   40.4160   22.7760   35.5890 H   0  0  0  0  0  0  0  0  0  0  0  0
   40.8820   22.3460   37.9720 H   0  0  0  0  0  0  0  0  0  0  0  0
   37.0830   24.0140   38.9610 H   0  0  0  0  0  0  0  0  0  0  0  0
   37.3740   21.5960   33.9220 C   0  0  1  0  0  0  0  0  0  0  0  0
   36.2190   21.1640   34.6920 C   0  0  0  0  0  0  0  0  0  0  0  0
   36.1090   21.2030   33.1810 C   0  0  2  0  0  0  0  0  0  0  0  0
   38.2500   20.9330   33.7650 H   0  0  0  0  0  0  0  0  0  0  0  0
   35.6650   21.9410   35.2780 H   0  0  0  0  0  0  0  0  0  0  0  0
   36.2940   20.1880   35.2170 H   0  0  0  0  0  0  0  0  0  0  0  0
   35.4310   21.9770   32.7920 H   0  0  0  0  0  0  0  0  0  0  0  0
   35.9910   19.8730   32.5790 C   0  0  0  0  0  0  0  0  0  0  0  0
   36.4620   19.5840   31.3460 N   0  0  0  0  0  0  0  0  0  0  0  0
   36.2240   18.3430   31.0630 O   0  0  0  0  0  0  0  0  0  0  0  0
   35.6060   17.8300   32.1000 C   0  0  0  0  0  0  0  0  0  0  0  0
   35.2430   16.8070   32.2330 H   0  0  0  0  0  0  0  0  0  0  0  0
   35.4340   18.7590   33.0850 N   0  0  0  0  0  0  0  0  0  0  0  0
  1  8  1  0  0  0  0
  2  6  1  0  0  0  0
  2  1  2  0  0  0  0
  3  2  1  0  0  0  0
  4  3  2  0  0  0  0
  4  5  1  0  0  0  0
  5 17  1  0  0  0  0
  5  1  1  0  0  0  0
  7  4  1  0  0  0  0
  8  9  2  0  0  0  0
  8 13  1  0  0  0  0
  9 10  1  0  0  0  0
 10 15  1  0  0  0  0
 10 11  2  0  0  0  0
 12 11  1  0  0  0  0
 12 16  1  0  0  0  0
 13 12  2  0  0  0  0
 14  9  1  0  0  0  0
 17 20  1  6  0  0  0
 17 18  1  0  0  0  0
 18 22  1  0  0  0  0
 18 21  1  0  0  0  0
 19 23  1  6  0  0  0
 19 17  1  0  0  0  0
 19 18  1  0  0  0  0
 24 29  1  0  0  0  0
 24 19  1  0  0  0  0
 25 24  2  0  0  0  0
 26 25  1  0  0  0  0
 26 27  1  0  0  0  0
 27 28  1  0  0  0  0
 27 29  2  0  0  0  0
M  END
>  <minimizedAffinity>
-4.60213232

>  <minimizedRMSD>
0.911352098

$$$$
