
 OpenBabel03262519503D

 21 22  0  0  0  0  0  0  0  0999 V2000
   38.2070   24.3840   37.1770 C   0  0  0  0  0  0  0  0  0  0  0  0
   38.8810   24.8100   35.9550 C   0  0  0  0  0  0  0  0  0  0  0  0
   40.0140   24.0970   35.6680 C   0  0  0  0  0  0  0  0  0  0  0  0
   40.4330   23.0590   36.5030 N   0  0  0  0  0  0  0  0  0  0  0  0
   39.7720   22.7170   37.6020 C   0  0  0  0  0  0  0  0  0  0  0  0
   38.6670   23.3570   37.9610 N   0  0  0  0  0  0  0  0  0  0  0  0
   37.2960   24.7740   37.6460 H   0  0  0  0  0  0  0  0  0  0  0  0
   40.3240   21.8970   38.0330 H   0  0  0  0  0  0  0  0  0  0  0  0
   38.0880   25.8580   35.3260 C   0  0  0  0  0  0  0  0  0  0  0  0
   37.3980   25.7590   34.1960 N   0  0  0  0  0  0  0  0  0  0  0  0
   36.8610   26.8780   33.8880 O   0  0  0  0  0  0  0  0  0  0  0  0
   37.1540   27.7710   34.7750 C   0  0  0  0  0  0  0  0  0  0  0  0
   36.8790   28.8130   34.8440 H   0  0  0  0  0  0  0  0  0  0  0  0
   37.9120   27.1410   35.6630 N   0  0  0  0  0  0  0  0  0  0  0  0
   40.6540   24.6370   34.4320 C   0  0  0  0  0  0  0  0  0  0  0  0
   39.9390   25.3820   34.0120 H   0  0  0  0  0  0  0  0  0  0  0  0
   40.9130   23.8300   33.7660 H   0  0  0  0  0  0  0  0  0  0  0  0
   41.8540   25.4840   34.8950 C   0  0  0  0  0  0  0  0  0  0  0  0
   42.7390   24.7700   34.6410 H   0  0  0  0  0  0  0  0  0  0  0  0
   42.0640   26.3380   34.2690 H   0  0  0  0  0  0  0  0  0  0  0  0
   41.9260   25.5450   35.9680 H   0  0  0  0  0  0  0  0  0  0  0  0
  1  7  1  0  0  0  0
  1  6  1  0  0  0  0
  2  1  2  0  0  0  0
  3  2  1  0  0  0  0
  3  4  2  0  0  0  0
  4  5  1  0  0  0  0
  5  6  2  0  0  0  0
  5  8  1  0  0  0  0
  9 14  1  0  0  0  0
  9  2  1  0  0  0  0
 10  9  2  0  0  0  0
 11 10  1  0  0  0  0
 11 12  1  0  0  0  0
 12 13  1  0  0  0  0
 12 14  2  0  0  0  0
 15 18  1  0  0  0  0
 15  3  1  0  0  0  0
 16 15  1  0  0  0  0
 17 15  1  0  0  0  0
 18 21  1  0  0  0  0
 19 18  1  0  0  0  0
 20 18  1  0  0  0  0
M  END
>  <minimizedAffinity>
-3.42446065

>  <minimizedRMSD>
5.35528421

$$$$
