
     RDKit          3D

 29 32  0  0  0  0  0  0  0  0999 V2000
   38.0259   23.4664   34.6247 C   0  0  0  0  0  0  0  0  0  0  0  0
   38.2616   24.5695   33.7958 C   0  0  0  0  0  0  0  0  0  0  0  0
   37.7660   24.1733   32.5898 N   0  0  0  0  0  0  0  0  0  0  0  0
   37.2891   22.9533   32.7157 C   0  0  0  0  0  0  0  0  0  0  0  0
   37.4327   22.4766   33.9720 N   0  0  0  0  0  0  0  0  0  0  0  0
   38.3825   23.4014   36.0291 C   0  0  0  0  0  0  0  0  0  0  0  0
   39.5955   22.8069   36.4189 C   0  0  0  0  0  0  0  0  0  0  0  0
   39.9030   22.7650   37.7954 C   0  0  0  0  0  0  0  0  0  0  0  0
   39.0201   23.2951   38.6575 N   0  0  0  0  0  0  0  0  0  0  0  0
   37.8549   23.8632   38.2485 C   0  0  0  0  0  0  0  0  0  0  0  0
   37.5324   23.9190   36.9435 N   0  0  0  0  0  0  0  0  0  0  0  0
   36.9980   21.1622   34.3974 C   0  0  1  0  0  0  0  0  0  0  0  0
   35.8372   20.9812   35.2541 C   0  0  0  0  0  0  0  0  0  0  0  0
   35.6762   20.7717   33.7615 C   0  0  2  0  0  0  0  0  0  0  0  0
   38.7363   25.5102   34.0902 H   0  0  0  0  0  0  0  0  0  0  0  0
   36.8383   22.4375   31.8571 H   0  0  0  0  0  0  0  0  0  0  0  0
   40.2860   22.3893   35.7091 H   0  0  0  0  0  0  0  0  0  0  0  0
   40.8397   22.3071   38.1101 H   0  0  0  0  0  0  0  0  0  0  0  0
   37.1611   24.2838   38.9727 H   0  0  0  0  0  0  0  0  0  0  0  0
   37.8026   20.3998   34.3391 H   0  0  0  0  0  0  0  0  0  0  0  0
   35.3793   21.8963   35.7080 H   0  0  0  0  0  0  0  0  0  0  0  0
   35.8423   20.1056   35.9385 H   0  0  0  0  0  0  0  0  0  0  0  0
   35.0578   21.5314   33.2578 H   0  0  0  0  0  0  0  0  0  0  0  0
   35.4136   19.3767   33.4007 C   0  0  0  0  0  0  0  0  0  0  0  0
   35.0244   18.4501   34.3029 N   0  0  0  0  0  0  0  0  0  0  0  0
   34.8633   17.3053   33.7178 O   0  0  0  0  0  0  0  0  0  0  0  0
   35.1447   17.4860   32.4496 C   0  0  0  0  0  0  0  0  0  0  0  0
   35.1228   16.7507   31.6399 H   0  0  0  0  0  0  0  0  0  0  0  0
   35.4985   18.7808   32.1996 N   0  0  0  0  0  0  0  0  0  0  0  0
  1  6  1  0
  2  1  2  0
  3  4  2  0
  3  2  1  0
  4  5  1  0
  5 12  1  0
  5  1  1  0
  6  7  2  0
  6 11  1  0
  7  8  1  0
  8  9  2  0
 10  9  1  0
 11 10  2  0
 12 13  1  0
 14 12  1  0
 14 13  1  0
  2 15  1  0
  4 16  1  0
  7 17  1  0
  8 18  1  0
 10 19  1  0
 12 20  1  1
 13 21  1  0
 13 22  1  0
 14 23  1  6
 24 25  2  0
 25 26  1  0
 26 27  1  0
 27 28  1  0
 27 29  2  0
 29 24  1  0
 14 24  1  0
M  ISO  8  15  14  16  14  17  14  18  14  19  14  20  13  21  13  22  13
M  ISO  2  23  13  28  14
M  END
>  <DihAtoms>  (1) 
11,13,23,24

>  <DihDeg>  (1) 
-159.9110709204384

$$$$
