
 OpenBabel03262520003D

 32 35  0  0  1  0  0  0  0  0999 V2000
   40.5860   23.0190   33.6400 C   0  0  0  0  0  0  0  0  0  0  0  0
   40.6310   21.6410   33.4420 C   0  0  0  0  0  0  0  0  0  0  0  0
   39.3670   21.3360   33.0170 N   0  0  0  0  0  0  0  0  0  0  0  0
   38.6680   22.4700   32.9820 C   0  0  0  0  0  0  0  0  0  0  0  0
   39.3950   23.5160   33.3600 N   0  0  0  0  0  0  0  0  0  0  0  0
   41.4770   20.9790   33.5930 H   0  0  0  0  0  0  0  0  0  0  0  0
   37.6290   22.3520   32.6540 H   0  0  0  0  0  0  0  0  0  0  0  0
   41.7090   23.8170   34.1060 C   0  0  0  0  0  0  0  0  0  0  0  0
   42.0470   23.8130   35.4760 C   0  0  0  0  0  0  0  0  0  0  0  0
   43.1510   24.6000   35.8820 C   0  0  0  0  0  0  0  0  0  0  0  0
   43.8090   25.3030   34.9210 N   0  0  0  0  0  0  0  0  0  0  0  0
   43.4500   25.2780   33.6180 C   0  0  0  0  0  0  0  0  0  0  0  0
   42.4090   24.5410   33.2010 N   0  0  0  0  0  0  0  0  0  0  0  0
   41.4590   23.2200   36.1560 H   0  0  0  0  0  0  0  0  0  0  0  0
   43.4200   24.6070   36.9220 H   0  0  0  0  0  0  0  0  0  0  0  0
   44.0760   25.8900   32.9910 H   0  0  0  0  0  0  0  0  0  0  0  0
   38.8830   24.8360   33.4090 C   0  0  1  0  0  0  0  0  0  0  0  0
   37.5510   25.2230   33.7860 C   0  0  0  0  0  0  0  0  0  0  0  0
   38.7300   25.3980   34.7860 C   0  0  1  0  0  0  0  0  0  0  0  0
   39.3950   25.5300   32.6500 H   0  0  0  0  0  0  0  0  0  0  0  0
   37.0870   26.1610   33.4400 H   0  0  0  0  0  0  0  0  0  0  0  0
   36.8200   24.4720   34.0880 H   0  0  0  0  0  0  0  0  0  0  0  0
   38.3490   24.6620   36.0320 C   0  0  0  0  0  0  0  0  0  0  0  0
   38.0200   23.3530   36.2360 N   0  0  0  0  0  0  0  0  0  0  0  0
   37.7630   23.1690   37.4770 O   0  0  0  0  0  0  0  0  0  0  0  0
   37.8930   24.2790   38.1640 C   0  0  0  0  0  0  0  0  0  0  0  0
   37.7910   24.6140   39.1880 H   0  0  0  0  0  0  0  0  0  0  0  0
   38.2630   25.2340   37.2660 N   0  0  0  0  0  0  0  0  0  0  0  0
   39.0640   26.8630   34.9760 C   0  0  0  0  0  0  0  0  0  0  0  0
   40.3380   26.9940   35.4880 F   0  0  0  0  0  0  0  0  0  0  0  0
   39.1650   27.4740   33.6550 F   0  0  0  0  0  0  0  0  0  0  0  0
   38.1300   27.5600   35.6380 F   0  0  0  0  0  0  0  0  0  0  0  0
  1  8  1  0  0  0  0
  2  6  1  0  0  0  0
  2  1  2  0  0  0  0
  3  2  1  0  0  0  0
  4  3  2  0  0  0  0
  4  5  1  0  0  0  0
  5 17  1  0  0  0  0
  5  1  1  0  0  0  0
  7  4  1  0  0  0  0
  8  9  1  0  0  0  0
  9 10  2  0  0  0  0
  9 14  1  0  0  0  0
 10 15  1  0  0  0  0
 11 10  1  0  0  0  0
 12 11  2  0  0  0  0
 13 12  1  0  0  0  0
 13  8  2  0  0  0  0
 16 12  1  0  0  0  0
 17 20  1  6  0  0  0
 17 18  1  0  0  0  0
 17 19  1  0  0  0  0
 18 22  1  0  0  0  0
 18 19  1  0  0  0  0
 19 29  1  1  0  0  0
 19 23  1  0  0  0  0
 21 18  1  0  0  0  0
 23 24  2  0  0  0  0
 23 28  1  0  0  0  0
 24 25  1  0  0  0  0
 25 26  1  0  0  0  0
 26 27  1  0  0  0  0
 28 26  2  0  0  0  0
 29 30  1  0  0  0  0
 29 32  1  0  0  0  0
 31 29  1  0  0  0  0
M  END
>  <minimizedAffinity>
-4.32560015

>  <minimizedRMSD>
4.31657505

$$$$
