
 OpenBabel03262515303D

 25 26  0  0  0  0  0  0  0  0999 V2000
   38.5310   26.9750   35.7070 C   0  0  0  0  0  0  0  0  0  0  0  0
   37.8490   27.8560   35.8330 H   0  0  0  0  0  0  0  0  0  0  0  0
   39.2440   27.0090   36.5580 H   0  0  0  0  0  0  0  0  0  0  0  0
   40.4180   27.2660   31.9080 C   0  0  0  0  0  0  0  0  0  0  0  0
   41.2170   27.2030   33.0280 C   0  0  0  0  0  0  0  0  0  0  0  0
   40.5670   27.1090   34.2410 C   0  0  0  0  0  0  0  0  0  0  0  0
   39.2020   27.0760   34.3980 C   0  0  0  0  0  0  0  0  0  0  0  0
   38.4600   27.1430   33.2220 C   0  0  0  0  0  0  0  0  0  0  0  0
   39.0210   27.2390   31.9610 C   0  0  0  0  0  0  0  0  0  0  0  0
   42.4410   27.4200   30.4150 H   0  0  0  0  0  0  0  0  0  0  0  0
   41.0830   27.3880   30.2840 S   0  0  0  0  0  0  0  0  0  0  0  0
   40.5320   28.5880   29.5730 O   0  0  0  0  0  0  0  0  0  0  0  0
   40.7690   26.1140   29.5350 O   0  0  0  0  0  0  0  0  0  0  0  0
   37.6640   25.7380   35.8100 C   0  0  0  0  0  0  0  0  0  0  0  0
   37.4280   25.4160   34.7850 H   0  0  0  0  0  0  0  0  0  0  0  0
   36.7280   25.9500   36.3630 H   0  0  0  0  0  0  0  0  0  0  0  0
   40.1010   23.0300   36.6440 C   0  0  0  0  0  0  0  0  0  0  0  0
   39.7350   22.7330   37.9610 C   0  0  0  0  0  0  0  0  0  0  0  0
   38.6780   23.4420   38.5550 C   0  0  0  0  0  0  0  0  0  0  0  0
   38.0720   24.3900   37.7840 N   0  0  0  0  0  0  0  0  0  0  0  0
   38.4490   24.6540   36.5110 C   0  0  0  0  0  0  0  0  0  0  0  0
   39.4490   23.9810   35.9550 N   0  0  0  0  0  0  0  0  0  0  0  0
   40.9300   22.4700   36.1840 H   0  0  0  0  0  0  0  0  0  0  0  0
   40.2410   21.9740   38.5370 H   0  0  0  0  0  0  0  0  0  0  0  0
   38.3390   23.2680   39.5670 H   0  0  0  0  0  0  0  0  0  0  0  0
  1 14  1  0  0  0  0
  1  2  1  0  0  0  0
  1  3  1  0  0  0  0
  4  9  2  0  0  0  0
  4  5  1  0  0  0  0
  5  6  2  0  0  0  0
  6  7  1  0  0  0  0
  7  1  1  0  0  0  0
  8  7  2  0  0  0  0
  9  8  1  0  0  0  0
 11 10  1  0  0  0  0
 11  4  1  0  0  0  0
 12 11  2  0  0  0  0
 13 11  2  0  0  0  0
 14 16  1  0  0  0  0
 14 21  1  0  0  0  0
 15 14  1  0  0  0  0
 17 18  1  0  0  0  0
 18 24  1  0  0  0  0
 18 19  2  0  0  0  0
 19 25  1  0  0  0  0
 20 19  1  0  0  0  0
 21 20  2  0  0  0  0
 22 21  1  0  0  0  0
 22 17  2  0  0  0  0
 23 17  1  0  0  0  0
M  END
>  <minimizedAffinity>
-4.3960762

>  <minimizedRMSD>
2.50947356

$$$$
