REMARK  Name = 
REMARK  3 active torsions:
REMARK  status: ('A' for Active; 'I' for Inactive)
REMARK    1  A    between atoms: C_1  and  C_6
REMARK    2  A    between atoms: N_5  and  C_12
REMARK    3  A    between atoms: C_14  and  C_24
REMARK                            x       y       z     vdW  Elec       q    Type
REMARK                         _______ _______ _______ _____ _____    ______ ____
ROOT
ATOM      1  C   UNL     1      38.026  23.466  34.625  0.00  0.00    +0.000 A 
ATOM      2  C   UNL     1      38.262  24.570  33.796  0.00  0.00    +0.000 A 
ATOM      3  N   UNL     1      37.766  24.173  32.590  0.00  0.00    +0.000 NA
ATOM      4  C   UNL     1      37.289  22.953  32.716  0.00  0.00    +0.000 A 
ATOM      5  N   UNL     1      37.433  22.477  33.972  0.00  0.00    +0.000 N 
ATOM      6  H   UNL     1      38.736  25.510  34.090  0.00  0.00    +0.000 HD
ATOM      7  H   UNL     1      36.838  22.438  31.857  0.00  0.00    +0.000 HD
ENDROOT
BRANCH   1   8
ATOM      8  C   UNL     1      38.383  23.401  36.029  0.00  0.00    +0.000 A 
ATOM      9  C   UNL     1      39.596  22.807  36.419  0.00  0.00    +0.000 A 
ATOM     10  C   UNL     1      39.903  22.765  37.795  0.00  0.00    +0.000 A 
ATOM     11  N   UNL     1      39.020  23.295  38.657  0.00  0.00    +0.000 NA
ATOM     12  C   UNL     1      37.855  23.863  38.248  0.00  0.00    +0.000 A 
ATOM     13  N   UNL     1      37.532  23.919  36.944  0.00  0.00    +0.000 NA
ATOM     14  H   UNL     1      40.286  22.389  35.709  0.00  0.00    +0.000 HD
ATOM     15  H   UNL     1      40.840  22.307  38.110  0.00  0.00    +0.000 HD
ATOM     16  H   UNL     1      37.161  24.284  38.973  0.00  0.00    +0.000 HD
ENDBRANCH   1   8
BRANCH   5  17
ATOM     17  C   UNL     1      36.998  21.162  34.397  0.00  0.00    +0.000 C 
ATOM     18  C   UNL     1      35.837  20.981  35.254  0.00  0.00    +0.000 C 
ATOM     19  C   UNL     1      35.676  20.772  33.761  0.00  0.00    +0.000 C 
ATOM     20  H   UNL     1      37.803  20.400  34.339  0.00  0.00    +0.000 HD
ATOM     21  H   UNL     1      35.379  21.896  35.708  0.00  0.00    +0.000 HD
ATOM     22  H   UNL     1      35.842  20.106  35.938  0.00  0.00    +0.000 HD
ATOM     23  H   UNL     1      35.058  21.531  33.258  0.00  0.00    +0.000 HD
BRANCH  19  24
ATOM     24  C   UNL     1      35.414  19.377  33.401  0.00  0.00    +0.000 A 
ATOM     25  N   UNL     1      36.050  18.753  32.386  0.00  0.00    +0.000 NA
ATOM     26  O   UNL     1      35.629  17.531  32.286  0.00  0.00    +0.000 OA
ATOM     27  C   UNL     1      34.729  17.363  33.225  0.00  0.00    +0.000 A 
ATOM     28  H   UNL     1      34.151  16.464  33.456  0.00  0.00    +0.000 HD
ATOM     29  N   UNL     1      34.558  18.503  33.957  0.00  0.00    +0.000 NA
ENDBRANCH  19  24
ENDBRANCH   5  17
TORSDOF 3
