
 OpenBabel03262520003D

 33 36  0  0  1  0  0  0  0  0999 V2000
   39.4490   24.1880   34.4490 C   0  0  1  0  0  0  0  0  0  0  0  0
   38.2250   24.5600   35.1060 C   0  0  0  0  0  0  0  0  0  0  0  0
   38.7710   23.1050   35.2230 C   0  0  1  0  0  0  0  0  0  0  0  0
   40.3860   24.6390   34.9110 H   0  0  0  0  0  0  0  0  0  0  0  0
   37.2610   24.6230   34.5820 H   0  0  0  0  0  0  0  0  0  0  0  0
   38.2260   25.1790   36.0300 H   0  0  0  0  0  0  0  0  0  0  0  0
   39.0510   24.4350   31.9930 C   0  0  0  0  0  0  0  0  0  0  0  0
   39.5290   23.8410   30.8270 C   0  0  0  0  0  0  0  0  0  0  0  0
   40.4290   22.9230   31.2760 N   0  0  0  0  0  0  0  0  0  0  0  0
   40.4550   22.9970   32.6060 C   0  0  0  0  0  0  0  0  0  0  0  0
   39.6160   23.9170   33.0680 N   0  0  0  0  0  0  0  0  0  0  0  0
   39.2030   24.1120   29.8390 H   0  0  0  0  0  0  0  0  0  0  0  0
   41.1510   22.2960   33.0660 H   0  0  0  0  0  0  0  0  0  0  0  0
   38.0600   25.5000   32.0290 C   0  0  0  0  0  0  0  0  0  0  0  0
   38.4750   26.8310   32.2490 C   0  0  0  0  0  0  0  0  0  0  0  0
   37.4790   27.8320   32.2710 C   0  0  0  0  0  0  0  0  0  0  0  0
   36.1890   27.4430   32.0780 N   0  0  0  0  0  0  0  0  0  0  0  0
   35.8370   26.1540   31.8710 C   0  0  0  0  0  0  0  0  0  0  0  0
   36.7600   25.1780   31.8440 N   0  0  0  0  0  0  0  0  0  0  0  0
   39.5250   27.0110   32.3880 H   0  0  0  0  0  0  0  0  0  0  0  0
   37.7910   28.8410   32.4370 H   0  0  0  0  0  0  0  0  0  0  0  0
   34.8120   25.8480   31.7180 H   0  0  0  0  0  0  0  0  0  0  0  0
   37.6870   22.1790   34.7520 C   0  0  0  0  0  0  0  0  0  0  0  0
   37.3640   21.7050   33.5000 C   0  0  0  0  0  3  0  0  0  0  0  0
   36.2930   20.8470   33.3880 C   0  0  0  0  0  0  0  0  0  0  0  0
   36.1140   20.5250   32.3520 H   0  0  0  0  0  0  0  0  0  0  0  0
   35.5750   20.4770   34.4600 N   0  0  0  0  0  0  0  0  0  0  0  0
   35.8940   20.9390   35.6630 C   0  0  0  0  0  3  0  0  0  0  0  0
   36.9360   21.7820   35.8230 N   0  0  0  0  0  0  0  0  0  0  0  0
   39.2730   22.8310   36.6220 C   0  0  0  0  0  0  0  0  0  0  0  0
   39.7030   21.5240   36.7240 F   0  0  0  0  0  0  0  0  0  0  0  0
   40.5040   23.5990   36.8090 F   0  0  0  0  0  0  0  0  0  0  0  0
   38.4470   23.2230   37.6010 F   0  0  0  0  0  0  0  0  0  0  0  0
  1  4  1  1  0  0  0
  1  2  1  0  0  0  0
  1  3  1  0  0  0  0
  2  3  1  0  0  0  0
  2  6  1  0  0  0  0
  3 30  1  1  0  0  0
  5  2  1  0  0  0  0
  7 14  1  0  0  0  0
  7 11  1  0  0  0  0
  8  9  1  0  0  0  0
  8  7  2  0  0  0  0
  9 10  2  0  0  0  0
 10 13  1  0  0  0  0
 10 11  1  0  0  0  0
 11  1  1  0  0  0  0
 12  8  1  0  0  0  0
 14 15  1  0  0  0  0
 15 16  2  0  0  0  0
 15 20  1  0  0  0  0
 16 21  1  0  0  0  0
 17 16  1  0  0  0  0
 18 17  2  0  0  0  0
 19 18  1  0  0  0  0
 19 14  2  0  0  0  0
 22 18  1  0  0  0  0
 23  3  1  0  0  0  0
 23 29  1  0  0  0  0
 24 23  2  0  0  0  0
 25 24  1  0  0  0  0
 25 27  2  0  0  0  0
 26 25  1  0  0  0  0
 27 28  1  0  0  0  0
 28 29  2  0  0  0  0
 30 31  1  0  0  0  0
 30 32  1  0  0  0  0
 30 33  1  0  0  0  0
M  END
>  <minimizedAffinity>
-4.5415082

>  <minimizedRMSD>
3.01064563

$$$$
