
 OpenBabel03262519413D

 39 42  0  0  1  0  0  0  0  0999 V2000
   38.3460   26.0350   34.5240 N   0  0  0  0  0  0  0  0  0  0  0  0
   37.7190   27.2360   34.0050 C   0  0  0  0  0  0  0  0  0  0  0  0
   38.2080   27.3720   32.6050 C   0  0  0  0  0  0  0  0  0  0  0  0
   39.1020   26.1580   32.4060 C   0  0  0  0  0  0  0  0  0  0  0  0
   38.4100   25.1730   33.3940 C   0  0  2  0  0  0  0  0  0  0  0  0
   38.0540   28.1230   34.5720 H   0  0  0  0  0  0  0  0  0  0  0  0
   36.6150   27.1400   34.0650 H   0  0  0  0  0  0  0  0  0  0  0  0
   37.3520   27.2320   31.8830 H   0  0  0  0  0  0  0  0  0  0  0  0
   38.7250   28.3210   32.3790 H   0  0  0  0  0  0  0  0  0  0  0  0
   40.1160   26.3260   32.7700 H   0  0  0  0  0  0  0  0  0  0  0  0
   39.0190   25.7520   31.3840 H   0  0  0  0  0  0  0  0  0  0  0  0
   39.1160   24.3200   33.5060 H   0  0  0  0  0  0  0  0  0  0  0  0
   37.5180   25.3950   35.5060 C   0  0  0  0  0  0  0  0  0  0  0  0
   36.7590   24.7740   35.0050 H   0  0  0  0  0  0  0  0  0  0  0  0
   37.0570   26.2090   36.1130 H   0  0  0  0  0  0  0  0  0  0  0  0
   38.7330   23.4170   38.5030 C   0  0  0  0  0  0  0  0  0  0  0  0
   37.9430   24.2690   37.7370 C   0  0  0  0  0  0  0  0  0  0  0  0
   38.3210   24.4930   36.3940 C   0  0  0  0  0  0  0  0  0  0  0  0
   39.4380   23.8600   35.9340 N   0  0  0  0  0  0  0  0  0  0  0  0
   40.1640   23.0420   36.7290 C   0  0  0  0  0  0  0  0  0  0  0  0
   39.7990   22.8340   38.0020 N   0  0  0  0  0  0  0  0  0  0  0  0
   38.4770   23.2210   39.5310 H   0  0  0  0  0  0  0  0  0  0  0  0
   37.0660   24.7540   38.1370 H   0  0  0  0  0  0  0  0  0  0  0  0
   41.0410   22.5690   36.3000 H   0  0  0  0  0  0  0  0  0  0  0  0
   37.1800   24.7840   32.9450 O   0  0  0  0  0  0  0  0  0  0  0  0
   37.1470   23.5460   32.3610 C   0  0  2  0  0  0  0  0  0  0  0  0
   36.8560   23.5410   30.8930 C   0  0  0  0  0  0  0  0  0  0  0  0
   35.8720   22.9530   31.8550 C   0  0  1  0  0  0  0  0  0  0  0  0
   37.7720   22.8150   32.8720 H   0  0  0  0  0  0  0  0  0  0  0  0
   36.4630   24.4750   30.4160 H   0  0  0  0  0  0  0  0  0  0  0  0
   37.4300   22.8960   30.2040 H   0  0  0  0  0  0  0  0  0  0  0  0
   34.9070   23.4340   32.0510 H   0  0  0  0  0  0  0  0  0  0  0  0
   35.8390   21.4720   31.8030 C   0  0  0  0  0  0  0  0  0  0  0  0
   35.4710   20.7520   32.9400 C   0  0  0  0  0  0  0  0  0  0  0  0
   35.4000   19.3690   33.0270 C   0  0  0  0  0  0  0  0  0  0  0  0
   35.1040   18.9110   33.9520 H   0  0  0  0  0  0  0  0  0  0  0  0
   35.7180   18.6800   31.9020 N   0  0  0  0  0  0  0  0  0  0  0  0
   36.0780   19.3800   30.7900 C   0  0  0  0  0  0  0  0  0  0  0  0
   36.1370   20.7250   30.7400 N   0  0  0  0  0  0  0  0  0  0  0  0
  1 13  1  0  0  0  0
  2  7  1  0  0  0  0
  2  1  1  0  0  0  0
  2  6  1  0  0  0  0
  3  2  1  0  0  0  0
  4  3  1  0  0  0  0
  4 10  1  0  0  0  0
  4  5  1  0  0  0  0
  5 12  1  1  0  0  0
  5  1  1  0  0  0  0
  8  3  1  0  0  0  0
  9  3  1  0  0  0  0
 11  4  1  0  0  0  0
 13 15  1  0  0  0  0
 13 18  1  0  0  0  0
 14 13  1  0  0  0  0
 16 22  1  0  0  0  0
 17 23  1  0  0  0  0
 17 16  2  0  0  0  0
 18 17  1  0  0  0  0
 19 18  2  0  0  0  0
 19 20  1  0  0  0  0
 20 21  2  0  0  0  0
 21 16  1  0  0  0  0
 24 20  1  0  0  0  0
 25  5  1  0  0  0  0
 26 29  1  1  0  0  0
 26 25  1  0  0  0  0
 27 28  1  0  0  0  0
 27 26  1  0  0  0  0
 28 32  1  1  0  0  0
 28 26  1  0  0  0  0
 30 27  1  0  0  0  0
 31 27  1  0  0  0  0
 33 28  1  0  0  0  0
 33 34  1  0  0  0  0
 34 35  2  0  0  0  0
 35 36  1  0  0  0  0
 37 35  1  0  0  0  0
 38 37  2  0  0  0  0
 39 38  1  0  0  0  0
 39 33  2  0  0  0  0
M  END
>  <minimizedAffinity>
-5.12945747

>  <minimizedRMSD>
6.70596743

$$$$
