
 OpenBabel03262519083D

 35 38  0  0  1  0  0  0  0  0999 V2000
   36.6530   25.7260   32.2570 C   0  0  0  0  0  0  0  0  0  0  0  0
   37.2180   25.4820   33.2020 H   0  0  0  0  0  0  0  0  0  0  0  0
   35.6310   25.2980   32.4320 H   0  0  0  0  0  0  0  0  0  0  0  0
   36.4790   27.1920   32.1950 C   0  0  0  0  0  0  0  0  0  0  0  0
   35.9170   28.0700   33.0980 C   0  0  0  0  0  0  0  0  0  0  0  0
   35.8290   29.4300   32.8940 C   0  0  0  0  0  0  0  0  0  0  0  0
   36.3360   29.9260   31.7170 C   0  0  0  0  0  0  0  0  0  0  0  0
   36.8900   29.0360   30.8360 C   0  0  0  0  0  0  0  0  0  0  0  0
   36.9660   27.7110   31.0520 N   0  0  0  0  0  0  0  0  0  0  0  0
   35.5520   27.5610   33.9860 H   0  0  0  0  0  0  0  0  0  0  0  0
   35.3600   29.9810   33.6980 H   0  0  0  0  0  0  0  0  0  0  0  0
   36.2420   30.9900   31.6100 H   0  0  0  0  0  0  0  0  0  0  0  0
   37.4330   29.5510   29.5780 C   0  0  0  0  0  0  0  0  0  0  0  0
   38.3630   28.9020   28.8050 C   0  0  0  0  0  0  0  0  0  0  0  0
   38.8830   29.3740   27.6190 C   0  0  0  0  0  0  0  0  0  0  0  0
   39.6170   28.8050   27.0590 H   0  0  0  0  0  0  0  0  0  0  0  0
   38.4290   30.5880   27.1890 N   0  0  0  0  0  0  0  0  0  0  0  0
   37.5230   31.2280   27.9380 C   0  0  0  0  0  0  0  0  0  0  0  0
   37.0370   30.7390   29.0870 N   0  0  0  0  0  0  0  0  0  0  0  0
   37.3580   23.6580   30.7770 C   0  0  2  0  0  0  0  0  0  0  0  0
   38.5400   24.4400   31.2300 C   0  0  0  0  0  0  0  0  0  0  0  0
   37.2150   25.1120   31.0410 C   0  0  2  0  0  0  0  0  0  0  0  0
   37.1780   23.3800   29.7250 H   0  0  0  0  0  0  0  0  0  0  0  0
   38.9650   24.2420   32.2280 H   0  0  0  0  0  0  0  0  0  0  0  0
   39.3400   24.5430   30.4390 H   0  0  0  0  0  0  0  0  0  0  0  0
   37.2160   25.8040   30.1500 H   0  0  0  0  0  0  0  0  0  0  0  0
   36.9870   21.4880   33.7140 C   0  0  0  0  0  0  0  0  0  0  0  0
   35.7280   20.8690   33.5430 C   0  0  0  0  0  0  0  0  0  0  0  0
   35.0130   21.2460   32.3560 C   0  0  0  0  0  0  0  0  0  0  0  0
   35.5730   22.1380   31.5120 N   0  0  0  0  0  0  0  0  0  0  0  0
   36.8040   22.6970   31.7490 C   0  0  0  0  0  0  0  0  0  0  0  0
   37.5220   22.3680   32.8660 N   0  0  0  0  0  0  0  0  0  0  0  0
   37.5710   21.2430   34.5890 H   0  0  0  0  0  0  0  0  0  0  0  0
   35.3500   20.1650   34.2660 H   0  0  0  0  0  0  0  0  0  0  0  0
   34.0600   20.7980   32.1960 H   0  0  0  0  0  0  0  0  0  0  0  0
  1  3  1  0  0  0  0
  1  2  1  0  0  0  0
  4  1  1  0  0  0  0
  4  5  1  0  0  0  0
  5 10  1  0  0  0  0
  6  5  2  0  0  0  0
  6 11  1  0  0  0  0
  7  6  1  0  0  0  0
  8  9  1  0  0  0  0
  8  7  2  0  0  0  0
  9  4  2  0  0  0  0
 12  7  1  0  0  0  0
 13  8  1  0  0  0  0
 14 13  2  0  0  0  0
 15 14  1  0  0  0  0
 16 15  1  0  0  0  0
 17 15  2  0  0  0  0
 17 18  1  0  0  0  0
 18 19  2  0  0  0  0
 19 13  1  0  0  0  0
 20 23  1  6  0  0  0
 20 22  1  0  0  0  0
 20 21  1  0  0  0  0
 20 31  1  0  0  0  0
 21 24  1  0  0  0  0
 22 26  1  6  0  0  0
 22 21  1  0  0  0  0
 22  1  1  0  0  0  0
 25 21  1  0  0  0  0
 27 33  1  0  0  0  0
 28 27  1  0  0  0  0
 28 34  1  0  0  0  0
 29 28  2  0  0  0  0
 30 31  2  0  0  0  0
 30 29  1  0  0  0  0
 31 32  1  0  0  0  0
 32 27  2  0  0  0  0
 35 29  1  0  0  0  0
M  END
>  <minimizedAffinity>
-4.46650124

>  <minimizedRMSD>
0.808541894

$$$$
