REMARK  Name = 
REMARK  3 active torsions:
REMARK  status: ('A' for Active; 'I' for Inactive)
REMARK    1  A    between atoms: C_1  and  C_6
REMARK    2  A    between atoms: N_5  and  C_12
REMARK    3  A    between atoms: C_14  and  C_24
REMARK                            x       y       z     vdW  Elec       q    Type
REMARK                         _______ _______ _______ _____ _____    ______ ____
ROOT
ATOM      1  C   UNL     1      38.027  23.471  34.617  0.00  0.00    +0.000 A 
ATOM      2  C   UNL     1      38.266  24.565  33.799  0.00  0.00    +0.000 A 
ATOM      3  N   UNL     1      37.768  24.173  32.586  0.00  0.00    +0.000 NA
ATOM      4  C   UNL     1      37.286  22.956  32.709  0.00  0.00    +0.000 A 
ATOM      5  N   UNL     1      37.431  22.483  33.971  0.00  0.00    +0.000 N 
ATOM      6  H   UNL     1      38.732  25.522  34.021  0.00  0.00    +0.000 HD
ATOM      7  H   UNL     1      36.833  22.440  31.854  0.00  0.00    +0.000 HD
ENDROOT
BRANCH   1   8
ATOM      8  C   UNL     1      38.386  23.403  36.034  0.00  0.00    +0.000 A 
ATOM      9  C   UNL     1      39.592  22.808  36.421  0.00  0.00    +0.000 A 
ATOM     10  C   UNL     1      39.901  22.763  37.798  0.00  0.00    +0.000 A 
ATOM     11  N   UNL     1      39.019  23.294  38.658  0.00  0.00    +0.000 NA
ATOM     12  C   UNL     1      37.857  23.865  38.250  0.00  0.00    +0.000 A 
ATOM     13  N   UNL     1      37.540  23.920  36.945  0.00  0.00    +0.000 NA
ATOM     14  H   UNL     1      40.276  22.392  35.705  0.00  0.00    +0.000 HD
ATOM     15  H   UNL     1      40.813  22.319  38.163  0.00  0.00    +0.000 HD
ATOM     16  H   UNL     1      37.166  24.285  38.969  0.00  0.00    +0.000 HD
ENDBRANCH   1   8
BRANCH   5  17
ATOM     17  C   UNL     1      36.996  21.178  34.400  0.00  0.00    +0.000 C 
ATOM     18  C   UNL     1      35.834  20.964  35.249  0.00  0.00    +0.000 C 
ATOM     19  C   UNL     1      35.674  20.760  33.768  0.00  0.00    +0.000 C 
ATOM     20  H   UNL     1      37.826  20.455  34.465  0.00  0.00    +0.000 HD
ATOM     21  H   UNL     1      35.776  20.107  35.935  0.00  0.00    +0.000 HD
ATOM     22  H   UNL     1      35.235  21.835  35.625  0.00  0.00    +0.000 HD
ATOM     23  H   UNL     1      35.106  21.490  33.165  0.00  0.00    +0.000 HD
BRANCH  19  24
ATOM     24  C   UNL     1      35.729  19.385  33.200  0.00  0.00    +0.000 A 
ATOM     25  C   UNL     1      36.557  19.128  32.115  0.00  0.00    +0.000 A 
ATOM     26  C   UNL     1      36.577  17.829  31.618  0.00  0.00    +0.000 A 
ATOM     27  H   UNL     1      37.229  17.613  30.759  0.00  0.00    +0.000 HD
ATOM     28  N   UNL     1      35.840  16.819  32.130  0.00  0.00    +0.000 NA
ATOM     29  C   UNL     1      35.049  17.138  33.192  0.00  0.00    +0.000 A 
ATOM     30  N   UNL     1      34.989  18.390  33.720  0.00  0.00    +0.000 NA
ENDBRANCH  19  24
ENDBRANCH   5  17
TORSDOF 3
