
 OpenBabel03262519563D

 30 33  0  0  1  0  0  0  0  0999 V2000
   38.0760   23.7370   34.4690 C   0  0  0  0  0  0  0  0  0  0  0  0
   38.2760   24.9270   33.7870 C   0  0  0  0  0  0  0  0  0  0  0  0
   37.8160   24.6560   32.5270 N   0  0  0  0  0  0  0  0  0  0  0  0
   37.3900   23.4120   32.5000 C   0  0  0  0  0  0  0  0  0  0  0  0
   37.5380   22.8040   33.7020 N   0  0  0  0  0  0  0  0  0  0  0  0
   38.6930   25.8730   34.1260 H   0  0  0  0  0  0  0  0  0  0  0  0
   36.9760   22.9780   31.5820 H   0  0  0  0  0  0  0  0  0  0  0  0
   38.4160   23.5230   35.8770 C   0  0  0  0  0  0  0  0  0  0  0  0
   39.6410   22.9390   36.2180 C   0  0  0  0  0  0  0  0  0  0  0  0
   39.9300   22.7500   37.5870 C   0  0  0  0  0  0  0  0  0  0  0  0
   39.0120   23.1410   38.4840 N   0  0  0  0  0  0  0  0  0  0  0  0
   37.8320   23.7050   38.1190 C   0  0  0  0  0  0  0  0  0  0  0  0
   37.5330   23.8960   36.8230 N   0  0  0  0  0  0  0  0  0  0  0  0
   40.3540   22.6370   35.4740 H   0  0  0  0  0  0  0  0  0  0  0  0
   40.8550   22.3060   37.9180 H   0  0  0  0  0  0  0  0  0  0  0  0
   37.1120   24.0100   38.8670 H   0  0  0  0  0  0  0  0  0  0  0  0
   37.1580   21.4400   33.9700 C   0  0  1  0  0  0  0  0  0  0  0  0
   35.9990   21.0780   34.7720 C   0  0  0  0  0  0  0  0  0  0  0  0
   35.8620   21.0420   33.2760 C   0  0  2  0  0  0  0  0  0  0  0  0
   38.0190   20.7510   33.9620 H   0  0  0  0  0  0  0  0  0  0  0  0
   35.9740   20.1450   35.3530 H   0  0  0  0  0  0  0  0  0  0  0  0
   35.3590   21.8720   35.2390 H   0  0  0  0  0  0  0  0  0  0  0  0
   35.2670   21.8120   32.7540 H   0  0  0  0  0  0  0  0  0  0  0  0
   35.9830   19.7460   32.5520 C   0  0  0  0  0  0  0  0  0  0  0  0
   36.6810   19.6980   31.3530 C   0  0  0  0  0  3  0  0  0  0  0  0
   36.7700   18.4660   30.7120 C   0  0  0  0  0  0  0  0  0  0  0  0
   37.3210   18.4160   29.7610 H   0  0  0  0  0  0  0  0  0  0  0  0
   36.2160   17.3310   31.1900 N   0  0  0  0  0  0  0  0  0  0  0  0
   35.5450   17.4470   32.3700 C   0  0  0  0  0  3  0  0  0  0  0  0
   35.4260   18.6240   33.0410 N   0  0  0  0  0  0  0  0  0  0  0  0
  1  8  1  0  0  0  0
  2  6  1  0  0  0  0
  2  1  2  0  0  0  0
  3  2  1  0  0  0  0
  4  3  2  0  0  0  0
  4  5  1  0  0  0  0
  5 17  1  0  0  0  0
  5  1  1  0  0  0  0
  7  4  1  0  0  0  0
  8  9  2  0  0  0  0
  8 13  1  0  0  0  0
  9 10  1  0  0  0  0
 10 15  1  0  0  0  0
 10 11  2  0  0  0  0
 12 11  1  0  0  0  0
 12 16  1  0  0  0  0
 13 12  2  0  0  0  0
 14  9  1  0  0  0  0
 17 20  1  6  0  0  0
 17 18  1  0  0  0  0
 18 22  1  0  0  0  0
 18 21  1  0  0  0  0
 19 23  1  6  0  0  0
 19 17  1  0  0  0  0
 19 18  1  0  0  0  0
 24 30  1  0  0  0  0
 24 19  1  0  0  0  0
 25 24  2  0  0  0  0
 26 28  2  0  0  0  0
 26 25  1  0  0  0  0
 27 26  1  0  0  0  0
 28 29  1  0  0  0  0
 29 30  2  0  0  0  0
M  END
>  <minimizedAffinity>
-4.83270073

>  <minimizedRMSD>
0.714197218

$$$$
