
 OpenBabel03262518323D

 34 37  0  0  0  0  0  0  0  0999 V2000
   37.6100   24.8390   36.4780 O   0  0  0  0  0  0  0  0  0  0  0  0
   39.6780   22.6130   38.2560 N   0  0  0  0  0  0  0  0  0  0  0  0
   38.5970   23.3730   38.1080 N   0  0  0  0  0  0  0  0  0  0  0  0
   38.6470   23.9760   36.8790 C   0  0  0  0  0  0  0  0  0  0  0  0
   39.7980   23.5750   36.2470 C   0  0  0  0  0  0  0  0  0  0  0  0
   40.4170   22.7280   37.1330 C   0  0  0  0  0  0  0  0  0  0  0  0
   39.9700   22.0150   39.0580 H   0  0  0  0  0  0  0  0  0  0  0  0
   40.0690   23.9080   35.2700 H   0  0  0  0  0  0  0  0  0  0  0  0
   41.7040   22.0490   36.8700 C   0  0  0  0  0  0  0  0  0  0  0  0
   42.7160   22.7400   36.2310 C   0  0  0  0  0  0  0  0  0  0  0  0
   43.8730   22.0280   36.0310 C   0  0  0  0  0  0  0  0  0  0  0  0
   44.0840   20.7590   36.3990 N   0  0  0  0  0  0  0  0  0  0  0  0
   43.0660   20.1130   37.0250 C   0  0  0  0  0  0  0  0  0  0  0  0
   41.9150   20.7790   37.2380 N   0  0  0  0  0  0  0  0  0  0  0  0
   42.6140   23.7660   35.9070 H   0  0  0  0  0  0  0  0  0  0  0  0
   44.7010   22.5370   35.5280 H   0  0  0  0  0  0  0  0  0  0  0  0
   43.0510   19.0900   37.3930 H   0  0  0  0  0  0  0  0  0  0  0  0
   37.8780   26.0060   35.7770 C   0  0  0  0  0  0  0  0  0  0  0  0
   38.4790   26.9510   36.3230 O   0  0  0  0  0  0  0  0  0  0  0  0
   37.4510   26.1280   34.3870 C   0  0  0  0  0  0  0  0  0  0  0  0
   37.6990   25.0610   33.5350 C   0  0  0  0  0  0  0  0  0  0  0  0
   37.2920   25.1690   32.1990 C   0  0  0  0  0  0  0  0  0  0  0  0
   36.6840   26.3100   31.8260 N   0  0  0  0  0  0  0  0  0  0  0  0
   36.4590   27.3170   32.6630 C   0  0  0  0  0  0  0  0  0  0  0  0
   36.8350   27.2510   33.9540 N   0  0  0  0  0  0  0  0  0  0  0  0
   38.1880   24.1920   33.9160 H   0  0  0  0  0  0  0  0  0  0  0  0
   37.4900   24.3350   31.5480 H   0  0  0  0  0  0  0  0  0  0  0  0
   35.7880   28.5470   32.2060 C   0  0  0  0  0  0  0  0  0  0  0  0
   36.3790   29.3050   31.2130 C   0  0  0  0  0  0  0  0  0  0  0  0
   35.6700   30.4370   30.8560 C   0  0  0  0  0  0  0  0  0  0  0  0
   36.1210   31.0520   30.0700 H   0  0  0  0  0  0  0  0  0  0  0  0
   34.5040   30.8150   31.3950 N   0  0  0  0  0  0  0  0  0  0  0  0
   33.9570   30.0590   32.3560 C   0  0  0  0  0  0  0  0  0  0  0  0
   34.6190   28.9470   32.7300 N   0  0  0  0  0  0  0  0  0  0  0  0
  1  4  1  0  0  0  0
  2  7  1  0  0  0  0
  3  2  1  0  0  0  0
  4  3  2  0  0  0  0
  5  4  1  0  0  0  0
  5  6  2  0  0  0  0
  6  2  1  0  0  0  0
  8  5  1  0  0  0  0
  9  6  1  0  0  0  0
  9 14  1  0  0  0  0
 10  9  2  0  0  0  0
 11 10  1  0  0  0  0
 11 12  2  0  0  0  0
 12 13  1  0  0  0  0
 13 14  2  0  0  0  0
 13 17  1  0  0  0  0
 15 10  1  0  0  0  0
 16 11  1  0  0  0  0
 18 19  2  0  0  0  0
 18  1  1  0  0  0  0
 20 18  1  0  0  0  0
 21 26  1  0  0  0  0
 21 20  2  0  0  0  0
 22 21  1  0  0  0  0
 23 22  2  0  0  0  0
 23 24  1  0  0  0  0
 24 25  2  0  0  0  0
 25 20  1  0  0  0  0
 27 22  1  0  0  0  0
 28 24  1  0  0  0  0
 28 34  1  0  0  0  0
 29 28  2  0  0  0  0
 30 29  1  0  0  0  0
 30 32  2  0  0  0  0
 31 30  1  0  0  0  0
 32 33  1  0  0  0  0
 33 34  2  0  0  0  0
M  END
>  <minimizedAffinity>
-5.89148998

>  <minimizedRMSD>
0.858849049

$$$$
