
 OpenBabel03262520003D

 33 36  0  0  1  0  0  0  0  0999 V2000
   39.4530   24.1760   34.2710 C   0  0  1  0  0  0  0  0  0  0  0  0
   38.2800   24.5920   34.9880 C   0  0  0  0  0  0  0  0  0  0  0  0
   38.8080   23.1330   35.1220 C   0  0  1  0  0  0  0  0  0  0  0  0
   40.4250   24.6250   34.6570 H   0  0  0  0  0  0  0  0  0  0  0  0
   37.2860   24.6550   34.5240 H   0  0  0  0  0  0  0  0  0  0  0  0
   38.3480   25.2420   35.8890 H   0  0  0  0  0  0  0  0  0  0  0  0
   38.9260   24.3640   31.8340 C   0  0  0  0  0  0  0  0  0  0  0  0
   39.3100   23.7140   30.6630 C   0  0  0  0  0  0  0  0  0  0  0  0
   40.1950   22.7720   31.0910 N   0  0  0  0  0  0  0  0  0  0  0  0
   40.3000   22.8850   32.4140 C   0  0  0  0  0  0  0  0  0  0  0  0
   39.5300   23.8550   32.8930 N   0  0  0  0  0  0  0  0  0  0  0  0
   38.9400   23.9690   29.6870 H   0  0  0  0  0  0  0  0  0  0  0  0
   40.9910   22.1680   32.8580 H   0  0  0  0  0  0  0  0  0  0  0  0
   37.9860   25.4730   31.8900 C   0  0  0  0  0  0  0  0  0  0  0  0
   38.4680   26.7880   32.0660 C   0  0  0  0  0  0  0  0  0  0  0  0
   37.5180   27.8330   32.1090 C   0  0  0  0  0  0  0  0  0  0  0  0
   36.2060   27.4990   31.9780 N   0  0  0  0  0  0  0  0  0  0  0  0
   35.7880   26.2230   31.8120 C   0  0  0  0  0  0  0  0  0  0  0  0
   36.6650   25.2070   31.7660 N   0  0  0  0  0  0  0  0  0  0  0  0
   39.5290   26.9240   32.1570 H   0  0  0  0  0  0  0  0  0  0  0  0
   37.8810   28.8300   32.2410 H   0  0  0  0  0  0  0  0  0  0  0  0
   34.7460   25.9610   31.7080 H   0  0  0  0  0  0  0  0  0  0  0  0
   37.6820   22.2110   34.7530 C   0  0  0  0  0  0  0  0  0  0  0  0
   37.2660   21.7100   33.5380 C   0  0  0  0  0  3  0  0  0  0  0  0
   36.1780   20.8660   33.5230 C   0  0  0  0  0  0  0  0  0  0  0  0
   35.9240   20.5210   32.5110 H   0  0  0  0  0  0  0  0  0  0  0  0
   35.5330   20.5330   34.6520 N   0  0  0  0  0  0  0  0  0  0  0  0
   35.9410   21.0210   35.8180 C   0  0  0  0  0  3  0  0  0  0  0  0
   37.0040   21.8520   35.8830 N   0  0  0  0  0  0  0  0  0  0  0  0
   39.3920   22.8960   36.4970 C   0  0  0  0  0  0  0  0  0  0  0  0
   39.7260   21.5670   36.6480 F   0  0  0  0  0  0  0  0  0  0  0  0
   40.6900   23.5700   36.5480 F   0  0  0  0  0  0  0  0  0  0  0  0
   38.6760   23.4090   37.5060 F   0  0  0  0  0  0  0  0  0  0  0  0
  1  4  1  1  0  0  0
  1  2  1  0  0  0  0
  1  3  1  0  0  0  0
  2  3  1  0  0  0  0
  2  6  1  0  0  0  0
  3 30  1  1  0  0  0
  5  2  1  0  0  0  0
  7 14  1  0  0  0  0
  7 11  1  0  0  0  0
  8  9  1  0  0  0  0
  8  7  2  0  0  0  0
  9 10  2  0  0  0  0
 10 13  1  0  0  0  0
 10 11  1  0  0  0  0
 11  1  1  0  0  0  0
 12  8  1  0  0  0  0
 14 15  1  0  0  0  0
 15 16  2  0  0  0  0
 15 20  1  0  0  0  0
 16 21  1  0  0  0  0
 17 16  1  0  0  0  0
 18 17  2  0  0  0  0
 19 18  1  0  0  0  0
 19 14  2  0  0  0  0
 22 18  1  0  0  0  0
 23  3  1  0  0  0  0
 23 29  1  0  0  0  0
 24 23  2  0  0  0  0
 25 24  1  0  0  0  0
 25 27  2  0  0  0  0
 26 25  1  0  0  0  0
 27 28  1  0  0  0  0
 28 29  2  0  0  0  0
 30 32  1  0  0  0  0
 30 31  1  0  0  0  0
 30 33  1  0  0  0  0
M  END
>  <minimizedAffinity>
-4.56611633

>  <minimizedRMSD>
2.99772596

$$$$
