
 OpenBabel03262518123D

 23 25  0  0  0  0  0  0  0  0999 V2000
   42.5410   20.7740   37.1110 C   0  0  0  0  0  0  0  0  0  0  0  0
   41.4310   21.4590   37.6250 C   0  0  0  0  0  0  0  0  0  0  0  0
   40.6120   22.1430   36.7380 C   0  0  0  0  0  0  0  0  0  0  0  0
   40.9250   22.1170   35.3910 N   0  0  0  0  0  0  0  0  0  0  0  0
   41.9980   21.4450   34.9610 C   0  0  0  0  0  0  0  0  0  0  0  0
   42.7980   20.7820   35.7970 N   0  0  0  0  0  0  0  0  0  0  0  0
   43.1210   20.2710   37.8750 H   0  0  0  0  0  0  0  0  0  0  0  0
   41.1730   21.4870   38.6830 H   0  0  0  0  0  0  0  0  0  0  0  0
   39.4520   22.8610   37.2570 C   0  0  0  0  0  0  0  0  0  0  0  0
   38.6040   23.6520   36.4830 C   0  0  0  0  0  0  0  0  0  0  0  0
   37.6600   24.1350   37.3440 N   0  0  0  0  0  0  0  0  0  0  0  0
   37.9530   23.6450   38.5600 C   0  0  0  0  0  0  0  0  0  0  0  0
   39.0230   22.8790   38.5290 N   0  0  0  0  0  0  0  0  0  0  0  0
   38.7020   23.8260   35.4160 H   0  0  0  0  0  0  0  0  0  0  0  0
   37.3540   23.8750   39.4410 H   0  0  0  0  0  0  0  0  0  0  0  0
   39.4620   22.3730   39.3530 H   0  0  0  0  0  0  0  0  0  0  0  0
   42.3030   21.4370   33.5340 C   0  0  0  0  0  0  0  0  0  0  0  0
   41.3310   21.3020   32.5700 C   0  0  0  0  0  0  0  0  0  0  0  0
   41.5480   21.2860   31.2080 C   0  0  0  0  0  0  0  0  0  0  0  0
   40.7260   21.1750   30.5130 H   0  0  0  0  0  0  0  0  0  0  0  0
   42.8520   21.4200   30.8360 N   0  0  0  0  0  0  0  0  0  0  0  0
   43.8260   21.5540   31.7400 C   0  0  0  0  0  0  0  0  0  0  0  0
   43.5840   21.5660   33.0790 N   0  0  0  0  0  0  0  0  0  0  0  0
  1  2  1  0  0  0  0
  1  7  1  0  0  0  0
  2  8  1  0  0  0  0
  3  9  1  0  0  0  0
  3  2  2  0  0  0  0
  4  3  1  0  0  0  0
  5  4  2  0  0  0  0
  5  6  1  0  0  0  0
  6  1  2  0  0  0  0
  9 13  1  0  0  0  0
 10  9  2  0  0  0  0
 10 11  1  0  0  0  0
 11 12  2  0  0  0  0
 12 15  1  0  0  0  0
 13 12  1  0  0  0  0
 13 16  1  0  0  0  0
 14 10  1  0  0  0  0
 17  5  1  0  0  0  0
 18 17  2  0  0  0  0
 19 18  1  0  0  0  0
 20 19  1  0  0  0  0
 21 19  2  0  0  0  0
 21 22  1  0  0  0  0
 22 23  2  0  0  0  0
 23 17  1  0  0  0  0
M  END
>  <minimizedAffinity>
-3.7336607

>  <minimizedRMSD>
0.0895821229

$$$$
