REMARK  Name = 
REMARK  4 active torsions:
REMARK  status: ('A' for Active; 'I' for Inactive)
REMARK    1  A    between atoms: C_1  and  C_6
REMARK    2  A    between atoms: N_5  and  C_12
REMARK    3  A    between atoms: C_14  and  C_15
REMARK    4  A    between atoms: C_14  and  C_27
REMARK                            x       y       z     vdW  Elec       q    Type
REMARK                         _______ _______ _______ _____ _____    ______ ____
ROOT
ATOM      1  C   UNL     1      38.534  23.950  35.899  0.00  0.00    +0.000 C 
ATOM      2  C   UNL     1      38.066  25.227  36.363  0.00  0.00    +0.000 C 
ATOM      3  C   UNL     1      37.559  23.913  37.029  0.00  0.00    +0.000 C 
ATOM      4  H   UNL     1      39.621  23.727  36.152  0.00  0.00    +0.000 HD
ATOM      5  H   UNL     1      37.272  25.793  35.856  0.00  0.00    +0.000 HD
ATOM      6  H   UNL     1      38.709  25.894  36.979  0.00  0.00    +0.000 HD
ENDROOT
BRANCH   1  11
ATOM      7  C   UNL     1      37.869  23.698  33.502  0.00  0.00    +0.000 A 
ATOM      8  C   UNL     1      37.464  22.657  32.669  0.00  0.00    +0.000 A 
ATOM      9  N   UNL     1      37.482  21.565  33.483  0.00  0.00    +0.000 NA
ATOM     10  C   UNL     1      37.871  21.967  34.692  0.00  0.00    +0.000 A 
ATOM     11  N   UNL     1      38.113  23.272  34.728  0.00  0.00    +0.000 N 
ATOM     12  H   UNL     1      37.215  22.782  31.631  0.00  0.00    +0.000 HD
ATOM     13  H   UNL     1      37.918  21.160  35.423  0.00  0.00    +0.000 HD
BRANCH   7  14
ATOM     14  C   UNL     1      38.017  25.082  33.078  0.00  0.00    +0.000 A 
ATOM     15  C   UNL     1      39.300  25.584  32.771  0.00  0.00    +0.000 A 
ATOM     16  C   UNL     1      39.394  26.932  32.359  0.00  0.00    +0.000 A 
ATOM     17  N   UNL     1      38.242  27.652  32.288  0.00  0.00    +0.000 NA
ATOM     18  C   UNL     1      37.032  27.129  32.593  0.00  0.00    +0.000 A 
ATOM     19  N   UNL     1      36.908  25.851  32.987  0.00  0.00    +0.000 NA
ATOM     20  H   UNL     1      40.135  24.915  32.866  0.00  0.00    +0.000 HD
ATOM     21  H   UNL     1      40.365  27.314  32.125  0.00  0.00    +0.000 HD
ATOM     22  H   UNL     1      36.119  27.703  32.535  0.00  0.00    +0.000 HD
ENDBRANCH   7  14
ENDBRANCH   1  11
BRANCH   3  23
ATOM     23  C   UNL     1      36.059  23.919  36.951  0.00  0.00    +0.000 A 
ATOM     24  C   UNL     1      35.130  24.898  37.227  0.00  0.00    +0.000 A 
ATOM     25  C   UNL     1      33.797  24.595  37.052  0.00  0.00    +0.000 A 
ATOM     26  H   UNL     1      33.135  25.437  37.297  0.00  0.00    +0.000 HD
ATOM     27  N   UNL     1      33.403  23.384  36.624  0.00  0.00    +0.000 NA
ATOM     28  C   UNL     1      34.308  22.448  36.361  0.00  0.00    +0.000 A 
ATOM     29  N   UNL     1      35.625  22.698  36.518  0.00  0.00    +0.000 NA
ENDBRANCH   3  23
BRANCH   3  30
ATOM     30  C   UNL     1      38.117  23.769  38.427  0.00  0.00    +0.000 C 
ATOM     31  F   UNL     1      37.525  22.700  39.066  0.00  0.00    +0.000 F 
ATOM     32  F   UNL     1      39.513  23.348  38.304  0.00  0.00    +0.000 F 
ATOM     33  F   UNL     1      38.140  24.902  39.141  0.00  0.00    +0.000 F 
ENDBRANCH   3  30
TORSDOF 4
