
 OpenBabel03262520003D

 33 36  0  0  1  0  0  0  0  0999 V2000
   40.3150   23.6230   35.5460 C   0  0  1  0  0  0  0  0  0  0  0  0
   39.8160   24.9690   35.5960 C   0  0  0  0  0  0  0  0  0  0  0  0
   38.8370   23.7740   35.3930 C   0  0  1  0  0  0  0  0  0  0  0  0
   40.6890   23.2220   36.5430 H   0  0  0  0  0  0  0  0  0  0  0  0
   39.8530   25.6530   34.7360 H   0  0  0  0  0  0  0  0  0  0  0  0
   39.7430   25.5280   36.5550 H   0  0  0  0  0  0  0  0  0  0  0  0
   41.9090   23.4320   33.6290 C   0  0  0  0  0  0  0  0  0  0  0  0
   42.2390   22.4660   32.6810 C   0  0  0  0  0  0  0  0  0  0  0  0
   41.4250   21.4180   32.9890 N   0  0  0  0  0  0  0  0  0  0  0  0
   40.6870   21.7730   34.0400 C   0  0  0  0  0  0  0  0  0  0  0  0
   40.9660   23.0050   34.4490 N   0  0  0  0  0  0  0  0  0  0  0  0
   42.9820   22.6050   31.9170 H   0  0  0  0  0  0  0  0  0  0  0  0
   39.9970   20.9960   34.3670 H   0  0  0  0  0  0  0  0  0  0  0  0
   42.5290   24.7450   33.7170 C   0  0  0  0  0  0  0  0  0  0  0  0
   43.6400   24.9360   34.5660 C   0  0  0  0  0  0  0  0  0  0  0  0
   44.2120   26.2270   34.6150 C   0  0  0  0  0  0  0  0  0  0  0  0
   43.6510   27.1960   33.8410 N   0  0  0  0  0  0  0  0  0  0  0  0
   42.5840   26.9670   33.0420 C   0  0  0  0  0  0  0  0  0  0  0  0
   42.0170   25.7510   32.9720 N   0  0  0  0  0  0  0  0  0  0  0  0
   43.9920   24.0910   35.1280 H   0  0  0  0  0  0  0  0  0  0  0  0
   45.0550   26.3740   35.2560 H   0  0  0  0  0  0  0  0  0  0  0  0
   42.1410   27.7380   32.4280 H   0  0  0  0  0  0  0  0  0  0  0  0
   38.0650   24.0350   34.1310 C   0  0  0  0  0  0  0  0  0  0  0  0
   37.7430   25.2040   33.4780 C   0  0  0  0  0  3  0  0  0  0  0  0
   37.0100   25.1160   32.3150 C   0  0  0  0  0  0  0  0  0  0  0  0
   36.8030   26.0980   31.8680 H   0  0  0  0  0  0  0  0  0  0  0  0
   36.6140   23.9300   31.8230 N   0  0  0  0  0  0  0  0  0  0  0  0
   36.9300   22.8100   32.4610 C   0  0  0  0  0  3  0  0  0  0  0  0
   37.6470   22.8450   33.6050 N   0  0  0  0  0  0  0  0  0  0  0  0
   37.9840   23.5630   36.6230 C   0  0  0  0  0  0  0  0  0  0  0  0
   37.3860   22.3210   36.5780 F   0  0  0  0  0  0  0  0  0  0  0  0
   38.8840   23.4550   37.7720 F   0  0  0  0  0  0  0  0  0  0  0  0
   37.1510   24.5730   36.9070 F   0  0  0  0  0  0  0  0  0  0  0  0
  1  2  1  0  0  0  0
  1  4  1  1  0  0  0
  2  6  1  0  0  0  0
  3  1  1  0  0  0  0
  3  2  1  0  0  0  0
  3 30  1  1  0  0  0
  5  2  1  0  0  0  0
  7 14  1  0  0  0  0
  7 11  1  0  0  0  0
  8  9  1  0  0  0  0
  8  7  2  0  0  0  0
  9 10  2  0  0  0  0
 10 13  1  0  0  0  0
 10 11  1  0  0  0  0
 11  1  1  0  0  0  0
 12  8  1  0  0  0  0
 14 15  1  0  0  0  0
 15 16  2  0  0  0  0
 15 20  1  0  0  0  0
 16 21  1  0  0  0  0
 17 16  1  0  0  0  0
 18 17  2  0  0  0  0
 19 18  1  0  0  0  0
 19 14  2  0  0  0  0
 22 18  1  0  0  0  0
 23  3  1  0  0  0  0
 24 23  2  0  0  0  0
 25 24  1  0  0  0  0
 26 25  1  0  0  0  0
 27 25  2  0  0  0  0
 27 28  1  0  0  0  0
 28 29  2  0  0  0  0
 29 23  1  0  0  0  0
 30 33  1  0  0  0  0
 30 32  1  0  0  0  0
 31 30  1  0  0  0  0
M  END
>  <minimizedAffinity>
-3.89363217

>  <minimizedRMSD>
4.04657316

$$$$
