
 OpenBabel03262520003D

 33 36  0  0  1  0  0  0  0  0999 V2000
   39.0900   24.5000   36.0880 C   0  0  1  0  0  0  0  0  0  0  0  0
   37.7280   24.9320   36.2410 C   0  0  0  0  0  0  0  0  0  0  0  0
   38.2060   23.5960   36.8770 C   0  0  1  0  0  0  0  0  0  0  0  0
   39.8480   25.1050   36.6980 H   0  0  0  0  0  0  0  0  0  0  0  0
   37.4220   25.7120   36.9530 H   0  0  0  0  0  0  0  0  0  0  0  0
   37.0090   24.8030   35.4190 H   0  0  0  0  0  0  0  0  0  0  0  0
   39.4820   24.1400   33.6470 C   0  0  0  0  0  0  0  0  0  0  0  0
   40.2790   23.3090   32.8600 C   0  0  0  0  0  0  0  0  0  0  0  0
   40.9630   22.5640   33.7720 N   0  0  0  0  0  0  0  0  0  0  0  0
   40.5760   22.9490   34.9880 C   0  0  0  0  0  0  0  0  0  0  0  0
   39.6660   23.9170   34.9340 N   0  0  0  0  0  0  0  0  0  0  0  0
   40.2820   23.3270   31.7680 H   0  0  0  0  0  0  0  0  0  0  0  0
   41.0660   22.4140   35.7900 H   0  0  0  0  0  0  0  0  0  0  0  0
   38.5650   25.1400   33.1160 C   0  0  0  0  0  0  0  0  0  0  0  0
   38.9670   26.4920   33.0700 C   0  0  0  0  0  0  0  0  0  0  0  0
   38.0500   27.4290   32.5440 C   0  0  0  0  0  0  0  0  0  0  0  0
   36.8460   26.9620   32.1200 N   0  0  0  0  0  0  0  0  0  0  0  0
   36.5010   25.6550   32.1820 C   0  0  0  0  0  0  0  0  0  0  0  0
   37.3520   24.7430   32.6770 N   0  0  0  0  0  0  0  0  0  0  0  0
   39.9460   26.7480   33.4350 H   0  0  0  0  0  0  0  0  0  0  0  0
   38.3460   28.4600   32.5050 H   0  0  0  0  0  0  0  0  0  0  0  0
   35.5130   25.4480   31.8060 H   0  0  0  0  0  0  0  0  0  0  0  0
   37.2920   22.5190   36.3380 C   0  0  0  0  0  0  0  0  0  0  0  0
   36.2010   21.7650   36.7160 C   0  0  0  0  0  3  0  0  0  0  0  0
   35.9130   20.9530   35.6380 C   0  0  0  0  0  0  0  0  0  0  0  0
   35.0560   20.2760   35.7750 H   0  0  0  0  0  0  0  0  0  0  0  0
   36.7930   21.2040   34.6480 N   0  0  0  0  0  0  0  0  0  0  0  0
   37.6290   22.1500   35.0670 N   0  0  0  0  0  0  0  0  0  0  0  0
   36.7230   20.6750   33.7510 H   0  0  0  0  0  0  0  0  0  0  0  0
   38.2610   23.7020   38.3850 C   0  0  0  0  0  0  0  0  0  0  0  0
   37.4610   22.7340   38.9560 F   0  0  0  0  0  0  0  0  0  0  0  0
   39.6070   23.3210   38.8040 F   0  0  0  0  0  0  0  0  0  0  0  0
   38.0610   24.9380   38.8620 F   0  0  0  0  0  0  0  0  0  0  0  0
  1  2  1  0  0  0  0
  1  4  1  1  0  0  0
  1  3  1  0  0  0  0
  2  3  1  0  0  0  0
  2  5  1  0  0  0  0
  3 30  1  1  0  0  0
  6  2  1  0  0  0  0
  7 11  1  0  0  0  0
  8  7  2  0  0  0  0
  8  9  1  0  0  0  0
  9 10  2  0  0  0  0
 10 13  1  0  0  0  0
 11 10  1  0  0  0  0
 11  1  1  0  0  0  0
 12  8  1  0  0  0  0
 14  7  1  0  0  0  0
 15 14  1  0  0  0  0
 15 20  1  0  0  0  0
 16 15  2  0  0  0  0
 17 18  2  0  0  0  0
 17 16  1  0  0  0  0
 18 19  1  0  0  0  0
 19 14  2  0  0  0  0
 21 16  1  0  0  0  0
 22 18  1  0  0  0  0
 23 24  1  0  0  0  0
 23  3  1  0  0  0  0
 25 26  1  0  0  0  0
 25 24  2  0  0  0  0
 27 28  1  0  0  0  0
 27 25  1  0  0  0  0
 28 23  2  0  0  0  0
 29 27  1  0  0  0  0
 30 32  1  0  0  0  0
 30 33  1  0  0  0  0
 30 31  1  0  0  0  0
M  END
>  <minimizedAffinity>
-5.1161375

>  <minimizedRMSD>
2.07897115

$$$$
