
 OpenBabel03262519373D

 31 33  0  0  1  0  0  0  0  0999 V2000
   37.6520   25.4830   34.4260 N   0  0  0  0  0  0  0  0  0  0  0  0
   37.1540   25.4990   33.1000 C   0  0  0  0  0  0  0  0  0  0  0  0
   36.7880   26.9520   32.8280 C   0  0  0  0  0  0  0  0  0  0  0  0
   37.1530   27.6830   34.1080 C   0  0  0  0  0  0  0  0  0  0  0  0
   38.2570   26.7750   34.6120 C   0  0  2  0  0  0  0  0  0  0  0  0
   36.2300   24.8870   32.9730 H   0  0  0  0  0  0  0  0  0  0  0  0
   37.8980   25.1630   32.3700 H   0  0  0  0  0  0  0  0  0  0  0  0
   35.7050   27.0840   32.6780 H   0  0  0  0  0  0  0  0  0  0  0  0
   37.3880   27.3470   31.9820 H   0  0  0  0  0  0  0  0  0  0  0  0
   37.6390   28.6350   33.8180 H   0  0  0  0  0  0  0  0  0  0  0  0
   36.3300   27.7930   34.8120 H   0  0  0  0  0  0  0  0  0  0  0  0
   38.3170   26.9260   35.7110 H   0  0  0  0  0  0  0  0  0  0  0  0
   39.5270   26.9650   33.9490 C   0  0  0  0  0  0  0  0  0  0  0  0
   40.7630   26.8750   34.6010 C   0  0  0  0  0  0  0  0  0  0  0  0
   41.7260   27.1150   33.6470 C   0  0  0  0  0  0  0  0  0  0  0  0
   42.7800   27.1150   33.8390 H   0  0  0  0  0  0  0  0  0  0  0  0
   41.0610   27.3380   32.4760 N   0  0  0  0  0  0  0  0  0  0  0  0
   39.7430   27.2480   32.6560 N   0  0  0  0  0  0  0  0  0  0  0  0
   41.6070   27.5470   31.5900 H   0  0  0  0  0  0  0  0  0  0  0  0
   38.6720   24.4970   34.6620 C   0  0  0  0  0  0  0  0  0  0  0  0
   39.6700   24.8140   34.2810 H   0  0  0  0  0  0  0  0  0  0  0  0
   38.4190   23.5920   34.0730 H   0  0  0  0  0  0  0  0  0  0  0  0
   37.8920   24.0330   38.3250 C   0  0  0  0  0  0  0  0  0  0  0  0
   37.7800   24.4640   36.9960 C   0  0  0  0  0  0  0  0  0  0  0  0
   38.7560   24.0600   36.0820 C   0  0  0  0  0  0  0  0  0  0  0  0
   39.7890   23.2580   36.5090 N   0  0  0  0  0  0  0  0  0  0  0  0
   39.8500   22.8680   37.8130 C   0  0  0  0  0  0  0  0  0  0  0  0
   38.9170   23.2490   38.7050 N   0  0  0  0  0  0  0  0  0  0  0  0
   37.1260   24.3600   39.0060 H   0  0  0  0  0  0  0  0  0  0  0  0
   36.9640   25.0980   36.6580 H   0  0  0  0  0  0  0  0  0  0  0  0
   40.6790   22.2370   38.1060 H   0  0  0  0  0  0  0  0  0  0  0  0
  1  5  1  0  0  0  0
  1 20  1  0  0  0  0
  2  1  1  0  0  0  0
  3  2  1  0  0  0  0
  3  4  1  0  0  0  0
  4  5  1  0  0  0  0
  4 11  1  0  0  0  0
  5 12  1  1  0  0  0
  6  2  1  0  0  0  0
  7  2  1  0  0  0  0
  8  3  1  0  0  0  0
  9  3  1  0  0  0  0
 10  4  1  0  0  0  0
 13 14  1  0  0  0  0
 13  5  1  0  0  0  0
 15 16  1  0  0  0  0
 15 14  2  0  0  0  0
 17 18  1  0  0  0  0
 17 15  1  0  0  0  0
 18 13  2  0  0  0  0
 19 17  1  0  0  0  0
 20 25  1  0  0  0  0
 21 20  1  0  0  0  0
 22 20  1  0  0  0  0
 23 28  1  0  0  0  0
 23 29  1  0  0  0  0
 24 23  2  0  0  0  0
 25 26  2  0  0  0  0
 25 24  1  0  0  0  0
 26 27  1  0  0  0  0
 27 31  1  0  0  0  0
 27 28  2  0  0  0  0
 30 24  1  0  0  0  0
M  END
>  <minimizedAffinity>
-4.48505926

>  <minimizedRMSD>
0.818190098

$$$$
