
 OpenBabel03262519303D

 31 34  0  0  0  0  0  0  0  0999 V2000
   40.5420   21.9640   37.2850 O   0  0  0  0  0  0  0  0  0  0  0  0
   41.8170   22.1040   36.7810 C   0  0  0  0  0  0  0  0  0  0  0  0
   42.3670   23.2370   36.2160 C   0  0  0  0  0  0  0  0  0  0  0  0
   43.6320   23.0190   35.8300 N   0  0  0  0  0  0  0  0  0  0  0  0
   43.9670   21.7420   36.1230 C   0  0  0  0  0  0  0  0  0  0  0  0
   45.1330   21.0240   35.9340 C   0  0  0  0  0  0  0  0  0  0  0  0
   45.1830   19.6870   36.3480 C   0  0  0  0  0  0  0  0  0  0  0  0
   44.0600   19.1070   36.9400 C   0  0  0  0  0  0  0  0  0  0  0  0
   42.9050   19.8520   37.1160 C   0  0  0  0  0  0  0  0  0  0  0  0
   42.8520   21.1880   36.7040 C   0  0  0  0  0  0  0  0  0  0  0  0
   41.8570   24.2010   36.0880 H   0  0  0  0  0  0  0  0  0  0  0  0
   44.2680   23.7130   35.3760 H   0  0  0  0  0  0  0  0  0  0  0  0
   45.9910   21.4840   35.4750 H   0  0  0  0  0  0  0  0  0  0  0  0
   46.0730   19.0830   36.2220 H   0  0  0  0  0  0  0  0  0  0  0  0
   44.0650   18.0680   37.2740 H   0  0  0  0  0  0  0  0  0  0  0  0
   42.0200   19.4250   37.5730 H   0  0  0  0  0  0  0  0  0  0  0  0
   39.5830   22.9330   37.3060 C   0  0  0  0  0  0  0  0  0  0  0  0
   39.0130   23.2300   38.5450 C   0  0  0  0  0  0  0  0  0  0  0  0
   38.0280   24.2210   38.5860 C   0  0  0  0  0  0  0  0  0  0  0  0
   37.6750   24.8390   37.4430 N   0  0  0  0  0  0  0  0  0  0  0  0
   38.2490   24.5260   36.2560 C   0  0  0  0  0  0  0  0  0  0  0  0
   39.1880   23.5850   36.2010 N   0  0  0  0  0  0  0  0  0  0  0  0
   39.3130   22.7150   39.4710 H   0  0  0  0  0  0  0  0  0  0  0  0
   37.5480   24.4960   39.5180 H   0  0  0  0  0  0  0  0  0  0  0  0
   37.9190   25.1510   34.9790 C   0  0  0  0  0  0  0  0  0  0  0  0
   37.3820   26.4420   35.0310 C   0  0  0  0  0  0  0  0  0  0  0  0
   37.1520   26.8240   33.7090 C   0  0  0  0  0  0  0  0  0  0  0  0
   36.7410   27.7530   33.2840 H   0  0  0  0  0  0  0  0  0  0  0  0
   37.5390   25.7970   32.9290 N   0  0  0  0  0  0  0  0  0  0  0  0
   38.0010   24.7850   33.6790 N   0  0  0  0  0  0  0  0  0  0  0  0
   37.5090   25.7320   31.8770 H   0  0  0  0  0  0  0  0  0  0  0  0
  1 17  1  0  0  0  0
  2  1  1  0  0  0  0
  3  2  2  0  0  0  0
  4  5  1  0  0  0  0
  4  3  1  0  0  0  0
  5 10  1  0  0  0  0
  6  5  2  0  0  0  0
  6  7  1  0  0  0  0
  7  8  2  0  0  0  0
  8  9  1  0  0  0  0
  8 15  1  0  0  0  0
  9 16  1  0  0  0  0
 10  2  1  0  0  0  0
 10  9  2  0  0  0  0
 11  3  1  0  0  0  0
 12  4  1  0  0  0  0
 13  6  1  0  0  0  0
 14  7  1  0  0  0  0
 17 18  1  0  0  0  0
 18 19  2  0  0  0  0
 18 23  1  0  0  0  0
 19 24  1  0  0  0  0
 20 19  1  0  0  0  0
 21 20  2  0  0  0  0
 22 21  1  0  0  0  0
 22 17  2  0  0  0  0
 25 26  1  0  0  0  0
 25 21  1  0  0  0  0
 27 26  2  0  0  0  0
 28 27  1  0  0  0  0
 29 30  1  0  0  0  0
 29 27  1  0  0  0  0
 30 25  2  0  0  0  0
 31 29  1  0  0  0  0
M  END
>  <minimizedAffinity>
-5.0628624

>  <minimizedRMSD>
1.17825544

$$$$
