
 OpenBabel03262519453D

 32 34  0  0  1  0  0  0  0  0999 V2000
   39.9790   25.3160   34.2020 C   0  0  0  0  0  0  0  0  0  0  0  0
   39.5820   24.6610   33.3820 H   0  0  0  0  0  0  0  0  0  0  0  0
   40.8840   25.7660   33.8160 H   0  0  0  0  0  0  0  0  0  0  0  0
   38.9820   26.2620   34.5380 N   0  0  0  0  0  0  0  0  0  0  0  0
   38.8230   27.1860   35.5000 C   0  0  0  0  0  0  0  0  0  0  0  0
   37.6510   27.8980   35.4180 C   0  0  0  0  0  0  0  0  0  0  0  0
   37.0470   27.3810   34.3400 N   0  0  0  0  0  0  0  0  0  0  0  0
   37.8380   26.4120   33.8190 C   0  0  0  0  0  0  0  0  0  0  0  0
   39.5610   27.3560   36.2740 H   0  0  0  0  0  0  0  0  0  0  0  0
   37.3280   28.6760   36.0800 H   0  0  0  0  0  0  0  0  0  0  0  0
   37.4430   25.6470   32.6140 C   0  0  0  0  0  0  0  0  0  0  0  0
   36.8770   24.4310   32.2880 C   0  0  0  0  0  0  0  0  0  0  0  0
   36.8030   24.3830   30.9000 C   0  0  0  0  0  0  0  0  0  0  0  0
   36.3800   23.4920   30.4520 H   0  0  0  0  0  0  0  0  0  0  0  0
   37.3090   25.5350   30.4210 N   0  0  0  0  0  0  0  0  0  0  0  0
   37.6950   26.2960   31.4410 N   0  0  0  0  0  0  0  0  0  0  0  0
   37.3520   25.7140   29.3890 H   0  0  0  0  0  0  0  0  0  0  0  0
   40.3290   24.4040   35.3370 C   0  0  1  0  0  0  0  0  0  0  0  0
   40.6690   25.0650   36.1760 H   0  0  0  0  0  0  0  0  0  0  0  0
   37.4420   21.9740   35.6060 C   0  0  0  0  0  0  0  0  0  0  0  0
   38.5480   22.6330   35.0640 C   0  0  0  0  0  0  0  0  0  0  0  0
   39.1620   23.6570   35.8540 C   0  0  0  0  0  0  0  0  0  0  0  0
   38.6370   23.9330   37.0850 N   0  0  0  0  0  0  0  0  0  0  0  0
   37.5800   23.2850   37.5710 C   0  0  0  0  0  0  0  0  0  0  0  0
   36.9750   22.2950   36.8260 N   0  0  0  0  0  0  0  0  0  0  0  0
   37.0190   21.2130   34.9720 H   0  0  0  0  0  0  0  0  0  0  0  0
   38.9680   22.4310   34.1090 H   0  0  0  0  0  0  0  0  0  0  0  0
   37.1800   23.5230   38.5530 H   0  0  0  0  0  0  0  0  0  0  0  0
   41.4620   23.4880   34.9560 C   0  0  0  0  0  0  0  0  0  0  0  0
   41.6010   22.7410   35.7730 H   0  0  0  0  0  0  0  0  0  0  0  0
   41.3240   23.0170   33.9760 H   0  0  0  0  0  0  0  0  0  0  0  0
   42.4290   24.0610   34.9480 H   0  0  0  0  0  0  0  0  0  0  0  0
  1  4  1  0  0  0  0
  1 18  1  0  0  0  0
  2  1  1  0  0  0  0
  3  1  1  0  0  0  0
  4  5  1  0  0  0  0
  5  9  1  0  0  0  0
  6  5  2  0  0  0  0
  6 10  1  0  0  0  0
  7  6  1  0  0  0  0
  8  7  2  0  0  0  0
  8  4  1  0  0  0  0
 11  8  1  0  0  0  0
 12 11  1  0  0  0  0
 13 12  2  0  0  0  0
 14 13  1  0  0  0  0
 15 13  1  0  0  0  0
 15 16  1  0  0  0  0
 16 11  2  0  0  0  0
 17 15  1  0  0  0  0
 18 22  1  0  0  0  0
 18 19  1  1  0  0  0
 20 25  1  0  0  0  0
 21 20  2  0  0  0  0
 21 22  1  0  0  0  0
 22 23  2  0  0  0  0
 23 24  1  0  0  0  0
 24 28  1  0  0  0  0
 25 24  2  0  0  0  0
 26 20  1  0  0  0  0
 27 21  1  0  0  0  0
 29 18  1  0  0  0  0
 29 30  1  0  0  0  0
 31 29  1  0  0  0  0
 32 29  1  0  0  0  0
M  END
>  <minimizedAffinity>
-4.18378544

>  <minimizedRMSD>
4.37883902

$$$$
