REMARK  Name = 
REMARK  4 active torsions:
REMARK  status: ('A' for Active; 'I' for Inactive)
REMARK    1  A    between atoms: C_1  and  C_6
REMARK    2  A    between atoms: N_5  and  C_12
REMARK    3  A    between atoms: C_14  and  C_15
REMARK    4  A    between atoms: C_14  and  C_27
REMARK                            x       y       z     vdW  Elec       q    Type
REMARK                         _______ _______ _______ _____ _____    ______ ____
ROOT
ATOM      1  C   UNL     1      38.534  23.948  35.899  0.00  0.00    +0.000 C 
ATOM      2  C   UNL     1      38.071  25.227  36.364  0.00  0.00    +0.000 C 
ATOM      3  C   UNL     1      37.563  23.916  37.030  0.00  0.00    +0.000 C 
ATOM      4  H   UNL     1      39.620  23.712  36.175  0.00  0.00    +0.000 HD
ATOM      5  H   UNL     1      38.671  25.884  37.011  0.00  0.00    +0.000 HD
ATOM      6  H   UNL     1      37.297  25.773  35.807  0.00  0.00    +0.000 HD
ENDROOT
BRANCH   1  11
ATOM      7  C   UNL     1      37.869  23.698  33.504  0.00  0.00    +0.000 A 
ATOM      8  C   UNL     1      37.467  22.657  32.668  0.00  0.00    +0.000 A 
ATOM      9  N   UNL     1      37.487  21.565  33.482  0.00  0.00    +0.000 NA
ATOM     10  C   UNL     1      37.873  21.966  34.693  0.00  0.00    +0.000 A 
ATOM     11  N   UNL     1      38.113  23.273  34.729  0.00  0.00    +0.000 N 
ATOM     12  H   UNL     1      37.214  22.788  31.613  0.00  0.00    +0.000 HD
ATOM     13  H   UNL     1      37.923  21.166  35.420  0.00  0.00    +0.000 HD
BRANCH   7  14
ATOM     14  C   UNL     1      38.013  25.083  33.078  0.00  0.00    +0.000 A 
ATOM     15  C   UNL     1      39.297  25.582  32.769  0.00  0.00    +0.000 A 
ATOM     16  C   UNL     1      39.392  26.930  32.356  0.00  0.00    +0.000 A 
ATOM     17  N   UNL     1      38.241  27.650  32.286  0.00  0.00    +0.000 NA
ATOM     18  C   UNL     1      37.030  27.131  32.592  0.00  0.00    +0.000 A 
ATOM     19  N   UNL     1      36.909  25.855  32.987  0.00  0.00    +0.000 NA
ATOM     20  H   UNL     1      40.139  24.920  32.861  0.00  0.00    +0.000 HD
ATOM     21  H   UNL     1      40.364  27.319  32.119  0.00  0.00    +0.000 HD
ATOM     22  H   UNL     1      36.218  27.831  32.485  0.00  0.00    +0.000 HD
ENDBRANCH   7  14
ENDBRANCH   1  11
BRANCH   3  23
ATOM     23  C   UNL     1      36.055  23.949  36.935  0.00  0.00    +0.000 A 
ATOM     24  C   UNL     1      34.994  23.131  36.603  0.00  0.00    +0.000 A 
ATOM     25  C   UNL     1      33.861  23.901  36.767  0.00  0.00    +0.000 A 
ATOM     26  H   UNL     1      32.911  23.392  36.541  0.00  0.00    +0.000 HD
ATOM     27  N   UNL     1      34.219  25.133  37.180  0.00  0.00    +0.000 N 
ATOM     28  N   UNL     1      35.545  25.166  37.282  0.00  0.00    +0.000 NA
ATOM     29  H   UNL     1      33.482  25.852  37.355  0.00  0.00    +0.000 HD
ENDBRANCH   3  23
BRANCH   3  30
ATOM     30  C   UNL     1      38.120  23.767  38.428  0.00  0.00    +0.000 C 
ATOM     31  F   UNL     1      37.516  22.703  39.066  0.00  0.00    +0.000 F 
ATOM     32  F   UNL     1      39.512  23.343  38.305  0.00  0.00    +0.000 F 
ATOM     33  F   UNL     1      38.141  24.901  39.142  0.00  0.00    +0.000 F 
ENDBRANCH   3  30
TORSDOF 4
