
 OpenBabel03262520003D

 33 36  0  0  1  0  0  0  0  0999 V2000
   39.0990   23.8410   34.3800 C   0  0  1  0  0  0  0  0  0  0  0  0
   38.1930   24.4430   35.3190 C   0  0  0  0  0  0  0  0  0  0  0  0
   38.6970   22.9870   35.5340 C   0  0  1  0  0  0  0  0  0  0  0  0
   40.1650   24.2570   34.4220 H   0  0  0  0  0  0  0  0  0  0  0  0
   38.5120   25.1710   36.0800 H   0  0  0  0  0  0  0  0  0  0  0  0
   37.1210   24.5140   35.0890 H   0  0  0  0  0  0  0  0  0  0  0  0
   38.2210   23.8720   32.0410 C   0  0  0  0  0  0  0  0  0  0  0  0
   38.0840   22.9560   30.9990 C   0  0  0  0  0  0  0  0  0  0  0  0
   38.5950   21.8040   31.5140 N   0  0  0  0  0  0  0  0  0  0  0  0
   38.9910   22.0550   32.7620 C   0  0  0  0  0  0  0  0  0  0  0  0
   38.7700   23.3200   33.1060 N   0  0  0  0  0  0  0  0  0  0  0  0
   37.6510   23.2030   30.0260 H   0  0  0  0  0  0  0  0  0  0  0  0
   39.4170   21.1960   33.2640 H   0  0  0  0  0  0  0  0  0  0  0  0
   37.8170   25.2690   31.9640 C   0  0  0  0  0  0  0  0  0  0  0  0
   38.7940   26.2590   31.7200 C   0  0  0  0  0  0  0  0  0  0  0  0
   38.3600   27.6020   31.6490 C   0  0  0  0  0  0  0  0  0  0  0  0
   37.0340   27.8450   31.8210 N   0  0  0  0  0  0  0  0  0  0  0  0
   36.1310   26.8640   32.0530 C   0  0  0  0  0  0  0  0  0  0  0  0
   36.5140   25.5810   32.1260 N   0  0  0  0  0  0  0  0  0  0  0  0
   39.8170   25.9500   31.6010 H   0  0  0  0  0  0  0  0  0  0  0  0
   39.0950   28.3620   31.4640 H   0  0  0  0  0  0  0  0  0  0  0  0
   35.1210   27.2220   32.1660 H   0  0  0  0  0  0  0  0  0  0  0  0
   37.4620   22.1220   35.6380 C   0  0  0  0  0  0  0  0  0  0  0  0
   36.6930   21.2710   34.8700 C   0  0  0  0  0  3  0  0  0  0  0  0
   35.6760   20.8350   35.6930 C   0  0  0  0  0  0  0  0  0  0  0  0
   34.9620   20.1390   35.2290 H   0  0  0  0  0  0  0  0  0  0  0  0
   35.8220   21.3980   36.9100 N   0  0  0  0  0  0  0  0  0  0  0  0
   36.8990   22.1760   36.8810 N   0  0  0  0  0  0  0  0  0  0  0  0
   35.1340   21.1780   37.6650 H   0  0  0  0  0  0  0  0  0  0  0  0
   39.6430   22.9090   36.7110 C   0  0  0  0  0  0  0  0  0  0  0  0
   40.0420   21.6030   36.9100 F   0  0  0  0  0  0  0  0  0  0  0  0
   40.8780   23.5870   36.3300 F   0  0  0  0  0  0  0  0  0  0  0  0
   39.2070   23.5290   37.8170 F   0  0  0  0  0  0  0  0  0  0  0  0
  1  4  1  1  0  0  0
  1  2  1  0  0  0  0
  1  3  1  0  0  0  0
  2  3  1  0  0  0  0
  2  5  1  0  0  0  0
  3 23  1  0  0  0  0
  3 30  1  1  0  0  0
  6  2  1  0  0  0  0
  7 11  1  0  0  0  0
  8  9  1  0  0  0  0
  8  7  2  0  0  0  0
  9 10  2  0  0  0  0
 10 11  1  0  0  0  0
 10 13  1  0  0  0  0
 11  1  1  0  0  0  0
 12  8  1  0  0  0  0
 14  7  1  0  0  0  0
 14 19  1  0  0  0  0
 15 14  2  0  0  0  0
 16 15  1  0  0  0  0
 16 17  2  0  0  0  0
 17 18  1  0  0  0  0
 18 19  2  0  0  0  0
 18 22  1  0  0  0  0
 20 15  1  0  0  0  0
 21 16  1  0  0  0  0
 23 28  2  0  0  0  0
 24 23  1  0  0  0  0
 24 25  2  0  0  0  0
 25 27  1  0  0  0  0
 26 25  1  0  0  0  0
 27 29  1  0  0  0  0
 28 27  1  0  0  0  0
 30 31  1  0  0  0  0
 30 33  1  0  0  0  0
 32 30  1  0  0  0  0
M  END
>  <minimizedAffinity>
-4.61166143

>  <minimizedRMSD>
2.33593273

$$$$
