
     RDKit          3D

 31 34  0  0  0  0  0  0  0  0999 V2000
   38.0274   23.4619   34.6236 C   0  0  0  0  0  0  0  0  0  0  0  0
   38.2644   24.5649   33.7965 C   0  0  0  0  0  0  0  0  0  0  0  0
   37.7644   24.1794   32.5928 N   0  0  0  0  0  0  0  0  0  0  0  0
   37.2826   22.9588   32.7219 C   0  0  0  0  0  0  0  0  0  0  0  0
   37.4251   22.4755   33.9659 N   0  0  0  0  0  0  0  0  0  0  0  0
   38.3914   23.3959   36.0269 C   0  0  0  0  0  0  0  0  0  0  0  0
   39.5908   22.8008   36.4224 C   0  0  0  0  0  0  0  0  0  0  0  0
   39.9001   22.7612   37.7997 C   0  0  0  0  0  0  0  0  0  0  0  0
   39.0116   23.3049   38.6583 N   0  0  0  0  0  0  0  0  0  0  0  0
   37.8533   23.8771   38.2471 C   0  0  0  0  0  0  0  0  0  0  0  0
   37.5503   23.9201   36.9452 N   0  0  0  0  0  0  0  0  0  0  0  0
   36.9924   21.1753   34.3920 C   0  0  1  0  0  0  0  0  0  0  0  0
   35.8496   20.9572   35.2574 C   0  0  0  0  0  0  0  0  0  0  0  0
   35.6718   20.7720   33.7541 C   0  0  2  0  0  0  0  0  0  0  0  0
   38.7388   25.4691   34.1215 H   0  0  0  0  0  0  0  0  0  0  0  0
   36.8473   22.5157   31.8368 H   0  0  0  0  0  0  0  0  0  0  0  0
   40.2812   22.3742   35.7108 H   0  0  0  0  0  0  0  0  0  0  0  0
   40.8237   22.3084   38.1657 H   0  0  0  0  0  0  0  0  0  0  0  0
   37.1486   24.3101   38.9467 H   0  0  0  0  0  0  0  0  0  0  0  0
   37.8162   20.4319   34.3962 H   0  0  0  0  0  0  0  0  0  0  0  0
   35.8176   20.0691   35.9244 H   0  0  0  0  0  0  0  0  0  0  0  0
   35.2645   21.8056   35.6729 H   0  0  0  0  0  0  0  0  0  0  0  0
   35.0684   21.5206   33.2067 H   0  0  0  0  0  0  0  0  0  0  0  0
   35.5691   19.3403   33.3644 C   0  0  0  0  0  0  0  0  0  0  0  0
   35.5845   18.8805   32.0426 C   0  0  0  0  0  0  0  0  0  0  0  0
   35.4642   17.5063   32.2061 C   0  0  0  0  0  0  0  0  0  0  0  0
   35.4417   16.8213   31.3594 H   0  0  0  0  0  0  0  0  0  0  0  0
   35.3820   17.1534   33.5158 N   0  0  0  0  0  0  0  0  0  0  0  0
   35.4477   18.2893   34.2148 N   0  0  0  0  0  0  0  0  0  0  0  0
   35.6668   19.4289   31.1321 H   0  0  0  0  0  0  0  0  0  0  0  0
   35.2871   16.1806   33.8695 H   0  0  0  0  0  0  0  0  0  0  0  0
  1  6  1  0
  2  1  2  0
  3  4  2  0
  3  2  1  0
  4  5  1  0
  5 12  1  0
  5  1  1  0
  6  7  2  0
  6 11  1  0
  7  8  1  0
  8  9  2  0
 10  9  1  0
 11 10  2  0
 12 13  1  0
 14 12  1  0
 14 13  1  0
  2 15  1  0
  4 16  1  0
  7 17  1  0
  8 18  1  0
 10 19  1  0
 12 20  1  1
 13 21  1  0
 13 22  1  0
 14 23  1  6
 24 25  1  0
 25 26  2  0
 26 27  1  0
 26 28  1  0
 28 29  1  0
 29 24  2  0
 25 30  1  0
 28 31  1  0
 14 24  1  0
M  ISO  8  15  14  16  14  17  14  18  14  19  14  20  13  21  13  22  13
M  ISO  2  23  13  27  14
M  END
>  <DihAtoms>  (1) 
11,13,23,24

>  <DihDeg>  (1) 
26.745991627003775

$$$$
