
 OpenBabel03262519003D

 35 38  0  0  0  0  0  0  0  0999 V2000
   38.3490   25.7930   34.1390 C   0  0  0  0  0  0  0  0  0  0  0  0
   39.1040   26.4600   33.5930 H   0  0  0  0  0  0  0  0  0  0  0  0
   37.9250   26.4780   34.8610 H   0  0  0  0  0  0  0  0  0  0  0  0
   39.2420   24.7400   34.6580 C   0  0  0  0  0  0  0  0  0  0  0  0
   40.2680   24.1990   33.9070 C   0  0  0  0  0  0  0  0  0  0  0  0
   41.0940   23.2350   34.4170 C   0  0  0  0  0  0  0  0  0  0  0  0
   40.9290   22.7650   35.7130 C   0  0  0  0  0  0  0  0  0  0  0  0
   39.8990   23.3060   36.4700 C   0  0  0  0  0  0  0  0  0  0  0  0
   39.7240   22.8470   37.7680 C   0  0  0  0  0  0  0  0  0  0  0  0
   38.7230   23.3470   38.5630 C   0  0  0  0  0  0  0  0  0  0  0  0
   37.8790   24.3230   38.0550 C   0  0  0  0  0  0  0  0  0  0  0  0
   38.0750   24.7640   36.7540 C   0  0  0  0  0  0  0  0  0  0  0  0
   39.0770   24.2810   35.9290 C   0  0  0  0  0  0  0  0  0  0  0  0
   40.3760   24.5820   32.8990 H   0  0  0  0  0  0  0  0  0  0  0  0
   41.8820   22.8420   33.7910 H   0  0  0  0  0  0  0  0  0  0  0  0
   41.5580   22.0160   36.1360 H   0  0  0  0  0  0  0  0  0  0  0  0
   40.3870   22.0850   38.1570 H   0  0  0  0  0  0  0  0  0  0  0  0
   38.6320   22.9530   39.5700 H   0  0  0  0  0  0  0  0  0  0  0  0
   37.0950   24.7060   38.6940 H   0  0  0  0  0  0  0  0  0  0  0  0
   37.3690   25.5200   36.4500 H   0  0  0  0  0  0  0  0  0  0  0  0
   36.0310   25.9000   31.3100 C   0  0  0  0  0  0  0  0  0  0  0  0
   35.7350   24.5700   31.0580 C   0  0  0  0  0  0  0  0  0  0  0  0
   36.3320   23.5710   31.8860 C   0  0  0  0  0  0  0  0  0  0  0  0
   37.1700   23.9930   32.8850 N   0  0  0  0  0  0  0  0  0  0  0  0
   37.4270   25.3010   33.0890 C   0  0  0  0  0  0  0  0  0  0  0  0
   36.8620   26.2480   32.3090 N   0  0  0  0  0  0  0  0  0  0  0  0
   35.5580   26.6260   30.6620 H   0  0  0  0  0  0  0  0  0  0  0  0
   35.0860   24.2480   30.2800 H   0  0  0  0  0  0  0  0  0  0  0  0
   36.0770   22.1460   31.6950 C   0  0  0  0  0  0  0  0  0  0  0  0
   35.0860   21.4780   32.3830 C   0  0  0  0  0  0  0  0  0  0  0  0
   35.1350   20.1530   31.9520 C   0  0  0  0  0  0  0  0  0  0  0  0
   34.5070   19.3320   32.2710 H   0  0  0  0  0  0  0  0  0  0  0  0
   36.1410   20.0720   31.0330 N   0  0  0  0  0  0  0  0  0  0  0  0
   36.7080   21.2800   30.8800 N   0  0  0  0  0  0  0  0  0  0  0  0
   36.4540   19.2130   30.5020 H   0  0  0  0  0  0  0  0  0  0  0  0
  1  4  1  0  0  0  0
  1  3  1  0  0  0  0
  2  1  1  0  0  0  0
  4 13  1  0  0  0  0
  5  6  1  0  0  0  0
  5  4  2  0  0  0  0
  6  7  2  0  0  0  0
  7 16  1  0  0  0  0
  7  8  1  0  0  0  0
  8  9  1  0  0  0  0
  9 17  1  0  0  0  0
  9 10  2  0  0  0  0
 10 18  1  0  0  0  0
 11 10  1  0  0  0  0
 11 19  1  0  0  0  0
 12 11  2  0  0  0  0
 13  8  2  0  0  0  0
 13 12  1  0  0  0  0
 14  5  1  0  0  0  0
 15  6  1  0  0  0  0
 20 12  1  0  0  0  0
 21 26  1  0  0  0  0
 22 21  2  0  0  0  0
 22 23  1  0  0  0  0
 23 24  2  0  0  0  0
 24 25  1  0  0  0  0
 25  1  1  0  0  0  0
 26 25  2  0  0  0  0
 27 21  1  0  0  0  0
 28 22  1  0  0  0  0
 29 23  1  0  0  0  0
 29 30  1  0  0  0  0
 31 32  1  0  0  0  0
 31 30  2  0  0  0  0
 33 31  1  0  0  0  0
 34 33  1  0  0  0  0
 34 29  2  0  0  0  0
 35 33  1  0  0  0  0
M  END
>  <minimizedAffinity>
-6.01824284

>  <minimizedRMSD>
3.02278161

$$$$
