
 OpenBabel03262519563D

 30 33  0  0  1  0  0  0  0  0999 V2000
   38.0820   24.3180   34.3820 C   0  0  0  0  0  0  0  0  0  0  0  0
   38.0370   25.6680   34.0190 C   0  0  0  0  0  0  0  0  0  0  0  0
   37.5150   25.6480   32.7640 N   0  0  0  0  0  0  0  0  0  0  0  0
   37.2820   24.3930   32.4380 C   0  0  0  0  0  0  0  0  0  0  0  0
   37.6190   23.5340   33.4130 N   0  0  0  0  0  0  0  0  0  0  0  0
   38.3630   26.4720   34.6490 H   0  0  0  0  0  0  0  0  0  0  0  0
   36.8610   24.2190   31.4570 H   0  0  0  0  0  0  0  0  0  0  0  0
   38.5730   23.8280   35.6560 C   0  0  0  0  0  0  0  0  0  0  0  0
   39.8690   23.3220   35.7710 C   0  0  0  0  0  0  0  0  0  0  0  0
   40.3000   22.8560   37.0330 C   0  0  0  0  0  0  0  0  0  0  0  0
   39.4270   22.9290   38.0600 N   0  0  0  0  0  0  0  0  0  0  0  0
   38.1730   23.4250   37.9210 C   0  0  0  0  0  0  0  0  0  0  0  0
   37.7540   23.8690   36.7300 N   0  0  0  0  0  0  0  0  0  0  0  0
   40.5440   23.2770   34.9310 H   0  0  0  0  0  0  0  0  0  0  0  0
   41.3030   22.4500   37.1810 H   0  0  0  0  0  0  0  0  0  0  0  0
   37.4820   23.4770   38.7540 H   0  0  0  0  0  0  0  0  0  0  0  0
   37.4740   22.1080   33.3330 C   0  0  1  0  0  0  0  0  0  0  0  0
   36.6230   21.3410   34.2200 C   0  0  0  0  0  0  0  0  0  0  0  0
   36.0970   21.6990   32.8340 C   0  0  2  0  0  0  0  0  0  0  0  0
   38.3590   21.6150   32.8800 H   0  0  0  0  0  0  0  0  0  0  0  0
   36.8710   20.2830   34.4530 H   0  0  0  0  0  0  0  0  0  0  0  0
   36.0590   21.8240   35.0480 H   0  0  0  0  0  0  0  0  0  0  0  0
   35.2860   22.4480   32.7650 H   0  0  0  0  0  0  0  0  0  0  0  0
   36.0790   20.5310   31.9120 C   0  0  0  0  0  0  0  0  0  0  0  0
   36.8690   20.4260   30.7610 C   0  0  0  0  0  3  0  0  0  0  0  0
   36.4950   19.1840   30.2600 C   0  0  0  0  0  0  0  0  0  0  0  0
   36.9250   18.7740   29.3480 H   0  0  0  0  0  0  0  0  0  0  0  0
   35.5580   18.5810   31.0380 N   0  0  0  0  0  0  0  0  0  0  0  0
   35.3130   19.4200   32.0480 N   0  0  0  0  0  0  0  0  0  0  0  0
   35.1350   17.6490   30.8540 H   0  0  0  0  0  0  0  0  0  0  0  0
  1  8  1  0  0  0  0
  2  1  2  0  0  0  0
  2  6  1  0  0  0  0
  3  2  1  0  0  0  0
  4  3  2  0  0  0  0
  4  5  1  0  0  0  0
  5  1  1  0  0  0  0
  7  4  1  0  0  0  0
  8  9  2  0  0  0  0
  8 13  1  0  0  0  0
  9 10  1  0  0  0  0
 10 15  1  0  0  0  0
 10 11  2  0  0  0  0
 12 11  1  0  0  0  0
 12 16  1  0  0  0  0
 13 12  2  0  0  0  0
 14  9  1  0  0  0  0
 17 20  1  6  0  0  0
 17  5  1  0  0  0  0
 17 18  1  0  0  0  0
 18 21  1  0  0  0  0
 18 22  1  0  0  0  0
 19 23  1  6  0  0  0
 19 17  1  0  0  0  0
 19 18  1  0  0  0  0
 24 29  2  0  0  0  0
 24 19  1  0  0  0  0
 25 24  1  0  0  0  0
 26 25  2  0  0  0  0
 26 28  1  0  0  0  0
 27 26  1  0  0  0  0
 28 29  1  0  0  0  0
 30 28  1  0  0  0  0
M  END
>  <minimizedAffinity>
-4.61769295

>  <minimizedRMSD>
1.56612432

$$$$
