
 OpenBabel03262517053D

 33 36  0  0  0  0  0  0  0  0999 V2000
   38.6660   23.8500   34.9920 C   0  0  0  0  0  0  0  0  0  0  0  0
   39.5090   24.8890   34.6320 C   0  0  0  0  0  0  0  0  0  0  0  0
   39.6390   25.2330   33.2980 C   0  0  0  0  0  0  0  0  0  0  0  0
   38.9360   24.5530   32.3010 C   0  0  0  0  0  0  0  0  0  0  0  0
   38.1100   23.5270   32.7140 C   0  0  0  0  0  0  0  0  0  0  0  0
   37.9580   23.1610   34.0340 C   0  0  0  0  0  0  0  0  0  0  0  0
   40.0850   25.4630   35.3400 H   0  0  0  0  0  0  0  0  0  0  0  0
   40.2790   26.0320   32.9450 H   0  0  0  0  0  0  0  0  0  0  0  0
   38.9920   24.7710   31.2440 H   0  0  0  0  0  0  0  0  0  0  0  0
   37.5500   22.9760   31.9890 H   0  0  0  0  0  0  0  0  0  0  0  0
   39.4570   22.8030   37.2020 C   0  0  0  0  0  0  0  0  0  0  0  0
   38.6130   23.5840   36.4140 C   0  0  0  0  0  0  0  0  0  0  0  0
   37.6840   24.0740   37.2840 N   0  0  0  0  0  0  0  0  0  0  0  0
   37.9680   23.6070   38.5110 C   0  0  0  0  0  0  0  0  0  0  0  0
   39.0340   22.8360   38.4940 N   0  0  0  0  0  0  0  0  0  0  0  0
   37.3510   23.8720   39.3660 H   0  0  0  0  0  0  0  0  0  0  0  0
   39.4900   22.3310   39.3090 H   0  0  0  0  0  0  0  0  0  0  0  0
   42.5670   20.7590   37.0670 C   0  0  0  0  0  0  0  0  0  0  0  0
   41.4700   21.4510   37.6000 C   0  0  0  0  0  0  0  0  0  0  0  0
   40.6190   22.0690   36.6940 C   0  0  0  0  0  0  0  0  0  0  0  0
   40.8790   21.9800   35.3460 N   0  0  0  0  0  0  0  0  0  0  0  0
   41.9620   21.2910   34.9040 C   0  0  0  0  0  0  0  0  0  0  0  0
   42.7930   20.6930   35.7470 N   0  0  0  0  0  0  0  0  0  0  0  0
   43.1720   20.3130   37.8580 H   0  0  0  0  0  0  0  0  0  0  0  0
   41.2610   21.5230   38.6610 H   0  0  0  0  0  0  0  0  0  0  0  0
   42.1380   21.2420   33.8300 H   0  0  0  0  0  0  0  0  0  0  0  0
   37.0950   22.0910   34.4470 C   0  0  0  0  0  0  0  0  0  0  0  0
   36.4060   21.3620   33.4720 C   0  0  0  0  0  0  0  0  0  0  0  0
   35.6460   20.3960   34.0960 C   0  0  0  0  0  0  0  0  0  0  0  0
   34.9930   19.6620   33.6160 H   0  0  0  0  0  0  0  0  0  0  0  0
   35.8760   20.5440   35.4130 N   0  0  0  0  0  0  0  0  0  0  0  0
   36.7390   21.5550   35.6070 N   0  0  0  0  0  0  0  0  0  0  0  0
   35.4450   19.9560   36.1820 H   0  0  0  0  0  0  0  0  0  0  0  0
  1 12  1  0  0  0  0
  2  1  1  0  0  0  0
  2  7  1  0  0  0  0
  3  2  2  0  0  0  0
  4  5  2  0  0  0  0
  4  3  1  0  0  0  0
  5  6  1  0  0  0  0
  6 27  1  0  0  0  0
  6  1  2  0  0  0  0
  8  3  1  0  0  0  0
  9  4  1  0  0  0  0
 10  5  1  0  0  0  0
 11 15  1  0  0  0  0
 12 11  2  0  0  0  0
 12 13  1  0  0  0  0
 13 14  2  0  0  0  0
 14 16  1  0  0  0  0
 15 14  1  0  0  0  0
 15 17  1  0  0  0  0
 18 19  1  0  0  0  0
 18 24  1  0  0  0  0
 19 25  1  0  0  0  0
 20 11  1  0  0  0  0
 20 19  2  0  0  0  0
 21 20  1  0  0  0  0
 22 21  2  0  0  0  0
 22 23  1  0  0  0  0
 23 18  2  0  0  0  0
 26 22  1  0  0  0  0
 27 32  2  0  0  0  0
 28 29  2  0  0  0  0
 28 27  1  0  0  0  0
 29 31  1  0  0  0  0
 30 29  1  0  0  0  0
 31 32  1  0  0  0  0
 31 33  1  0  0  0  0
M  END
>  <minimizedAffinity>
-5.45122337

>  <minimizedRMSD>
0.423992604

$$$$
