REMARK  Name = 
REMARK  3 active torsions:
REMARK  status: ('A' for Active; 'I' for Inactive)
REMARK    1  A    between atoms: C_1  and  C_6
REMARK    2  A    between atoms: N_5  and  C_12
REMARK    3  A    between atoms: C_14  and  C_24
REMARK                            x       y       z     vdW  Elec       q    Type
REMARK                         _______ _______ _______ _____ _____    ______ ____
ROOT
ATOM      1  C   UNL     1      38.027  23.462  34.624  0.00  0.00    +0.000 A 
ATOM      2  C   UNL     1      38.264  24.565  33.797  0.00  0.00    +0.000 A 
ATOM      3  N   UNL     1      37.764  24.179  32.593  0.00  0.00    +0.000 NA
ATOM      4  C   UNL     1      37.283  22.959  32.722  0.00  0.00    +0.000 A 
ATOM      5  N   UNL     1      37.425  22.476  33.966  0.00  0.00    +0.000 N 
ATOM      6  H   UNL     1      38.739  25.469  34.121  0.00  0.00    +0.000 HD
ATOM      7  H   UNL     1      36.847  22.516  31.837  0.00  0.00    +0.000 HD
ENDROOT
BRANCH   1   8
ATOM      8  C   UNL     1      38.391  23.396  36.027  0.00  0.00    +0.000 A 
ATOM      9  C   UNL     1      39.591  22.801  36.422  0.00  0.00    +0.000 A 
ATOM     10  C   UNL     1      39.900  22.761  37.800  0.00  0.00    +0.000 A 
ATOM     11  N   UNL     1      39.012  23.305  38.658  0.00  0.00    +0.000 NA
ATOM     12  C   UNL     1      37.853  23.877  38.247  0.00  0.00    +0.000 A 
ATOM     13  N   UNL     1      37.550  23.920  36.945  0.00  0.00    +0.000 NA
ATOM     14  H   UNL     1      40.281  22.374  35.711  0.00  0.00    +0.000 HD
ATOM     15  H   UNL     1      40.824  22.308  38.166  0.00  0.00    +0.000 HD
ATOM     16  H   UNL     1      37.149  24.310  38.947  0.00  0.00    +0.000 HD
ENDBRANCH   1   8
BRANCH   5  17
ATOM     17  C   UNL     1      36.992  21.175  34.392  0.00  0.00    +0.000 C 
ATOM     18  C   UNL     1      35.850  20.957  35.257  0.00  0.00    +0.000 C 
ATOM     19  C   UNL     1      35.672  20.772  33.754  0.00  0.00    +0.000 C 
ATOM     20  H   UNL     1      37.816  20.432  34.396  0.00  0.00    +0.000 HD
ATOM     21  H   UNL     1      35.818  20.069  35.924  0.00  0.00    +0.000 HD
ATOM     22  H   UNL     1      35.264  21.806  35.673  0.00  0.00    +0.000 HD
ATOM     23  H   UNL     1      35.068  21.521  33.207  0.00  0.00    +0.000 HD
BRANCH  19  24
ATOM     24  C   UNL     1      35.569  19.340  33.364  0.00  0.00    +0.000 A 
ATOM     25  C   UNL     1      35.445  18.283  34.273  0.00  0.00    +0.000 A 
ATOM     26  C   UNL     1      35.387  17.177  33.435  0.00  0.00    +0.000 A 
ATOM     27  H   UNL     1      35.288  16.163  33.819  0.00  0.00    +0.000 HD
ATOM     28  N   UNL     1      35.469  17.526  32.124  0.00  0.00    +0.000 N 
ATOM     29  N   UNL     1      35.580  18.857  32.096  0.00  0.00    +0.000 NA
ATOM     30  H   UNL     1      35.447  16.862  31.325  0.00  0.00    +0.000 HD
ENDBRANCH  19  24
ENDBRANCH   5  17
TORSDOF 3
