
 OpenBabel03262519573D

 30 33  0  0  1  0  0  0  0  0999 V2000
   38.6920   24.4550   32.1910 C   0  0  0  0  0  0  0  0  0  0  0  0
   38.7690   24.5180   30.7960 C   0  0  0  0  0  0  0  0  0  0  0  0
   37.9230   23.5370   30.3810 N   0  0  0  0  0  0  0  0  0  0  0  0
   37.4080   22.9630   31.4490 C   0  0  0  0  0  0  0  0  0  0  0  0
   37.8570   23.5010   32.5940 N   0  0  0  0  0  0  0  0  0  0  0  0
   39.3820   25.2120   30.2580 H   0  0  0  0  0  0  0  0  0  0  0  0
   36.7090   22.1560   31.2740 H   0  0  0  0  0  0  0  0  0  0  0  0
   39.4290   25.3200   33.0930 C   0  0  0  0  0  0  0  0  0  0  0  0
   40.8170   25.2140   33.2020 C   0  0  0  0  0  0  0  0  0  0  0  0
   41.4890   26.0790   34.0940 C   0  0  0  0  0  0  0  0  0  0  0  0
   40.7450   26.9620   34.7920 N   0  0  0  0  0  0  0  0  0  0  0  0
   39.3970   27.0430   34.6680 C   0  0  0  0  0  0  0  0  0  0  0  0
   38.7500   26.2290   33.8260 N   0  0  0  0  0  0  0  0  0  0  0  0
   41.3850   24.4970   32.6290 H   0  0  0  0  0  0  0  0  0  0  0  0
   42.5740   26.0410   34.2200 H   0  0  0  0  0  0  0  0  0  0  0  0
   38.8120   27.7560   35.2350 H   0  0  0  0  0  0  0  0  0  0  0  0
   37.4650   23.0740   33.9070 C   0  0  1  0  0  0  0  0  0  0  0  0
   37.5650   21.7030   34.3640 C   0  0  0  0  0  0  0  0  0  0  0  0
   38.6590   22.6870   34.7650 C   0  0  2  0  0  0  0  0  0  0  0  0
   36.6930   23.7330   34.3570 H   0  0  0  0  0  0  0  0  0  0  0  0
   36.8650   21.3200   35.1370 H   0  0  0  0  0  0  0  0  0  0  0  0
   37.9230   20.8900   33.6940 H   0  0  0  0  0  0  0  0  0  0  0  0
   39.6580   22.5680   34.3050 H   0  0  0  0  0  0  0  0  0  0  0  0
   38.5680   23.0890   36.1950 C   0  0  0  0  0  0  0  0  0  0  0  0
   39.4770   22.6940   37.1830 C   0  0  0  0  0  3  0  0  0  0  0  0
   38.9680   23.3150   38.3160 C   0  0  0  0  0  0  0  0  0  0  0  0
   39.4420   23.2180   39.2930 H   0  0  0  0  0  0  0  0  0  0  0  0
   37.8430   24.0280   38.0470 N   0  0  0  0  0  0  0  0  0  0  0  0
   37.6100   23.8800   36.7410 N   0  0  0  0  0  0  0  0  0  0  0  0
   37.2960   24.5710   38.7440 H   0  0  0  0  0  0  0  0  0  0  0  0
  1  5  1  0  0  0  0
  1  8  1  0  0  0  0
  2  1  2  0  0  0  0
  3  2  1  0  0  0  0
  3  4  2  0  0  0  0
  4  5  1  0  0  0  0
  5 17  1  0  0  0  0
  6  2  1  0  0  0  0
  7  4  1  0  0  0  0
  8  9  2  0  0  0  0
  8 13  1  0  0  0  0
  9 10  1  0  0  0  0
 10 15  1  0  0  0  0
 10 11  2  0  0  0  0
 12 11  1  0  0  0  0
 12 16  1  0  0  0  0
 13 12  2  0  0  0  0
 14  9  1  0  0  0  0
 17 20  1  1  0  0  0
 17 18  1  0  0  0  0
 17 19  1  0  0  0  0
 18 19  1  0  0  0  0
 18 21  1  0  0  0  0
 19 23  1  6  0  0  0
 19 24  1  0  0  0  0
 22 18  1  0  0  0  0
 24 29  2  0  0  0  0
 24 25  1  0  0  0  0
 25 26  2  0  0  0  0
 26 27  1  0  0  0  0
 28 26  1  0  0  0  0
 28 30  1  0  0  0  0
 29 28  1  0  0  0  0
M  END
>  <minimizedAffinity>
-3.80308414

>  <minimizedRMSD>
4.95624256

$$$$
