
 OpenBabel03262519573D

 30 33  0  0  1  0  0  0  0  0999 V2000
   38.5530   24.4950   32.0040 C   0  0  0  0  0  0  0  0  0  0  0  0
   38.8780   25.3590   30.9520 C   0  0  0  0  0  0  0  0  0  0  0  0
   38.7320   24.5850   29.8430 N   0  0  0  0  0  0  0  0  0  0  0  0
   38.3570   23.3830   30.2300 C   0  0  0  0  0  0  0  0  0  0  0  0
   38.2330   23.2830   31.5630 N   0  0  0  0  0  0  0  0  0  0  0  0
   39.1660   26.3820   31.0810 H   0  0  0  0  0  0  0  0  0  0  0  0
   38.1990   22.6520   29.4490 H   0  0  0  0  0  0  0  0  0  0  0  0
   38.5630   24.8710   33.4050 C   0  0  0  0  0  0  0  0  0  0  0  0
   39.6120   24.4760   34.2390 C   0  0  0  0  0  0  0  0  0  0  0  0
   39.5750   24.8660   35.5960 C   0  0  0  0  0  0  0  0  0  0  0  0
   38.5240   25.6040   36.0090 N   0  0  0  0  0  0  0  0  0  0  0  0
   37.5180   25.9740   35.1770 C   0  0  0  0  0  0  0  0  0  0  0  0
   37.5420   25.6100   33.8910 N   0  0  0  0  0  0  0  0  0  0  0  0
   40.4400   23.8850   33.8790 H   0  0  0  0  0  0  0  0  0  0  0  0
   40.3680   24.5850   36.2940 H   0  0  0  0  0  0  0  0  0  0  0  0
   36.6800   26.5670   35.5220 H   0  0  0  0  0  0  0  0  0  0  0  0
   37.8390   22.0910   32.2600 C   0  0  1  0  0  0  0  0  0  0  0  0
   37.0370   22.1010   33.4670 C   0  0  0  0  0  0  0  0  0  0  0  0
   36.3480   21.8210   32.1360 C   0  0  2  0  0  0  0  0  0  0  0  0
   38.5370   21.2460   32.0880 H   0  0  0  0  0  0  0  0  0  0  0  0
   37.1410   21.2830   34.2110 H   0  0  0  0  0  0  0  0  0  0  0  0
   36.7130   23.0530   33.9440 H   0  0  0  0  0  0  0  0  0  0  0  0
   35.6750   22.5980   31.7260 H   0  0  0  0  0  0  0  0  0  0  0  0
   35.9760   20.3890   31.9770 C   0  0  0  0  0  0  0  0  0  0  0  0
   35.3380   19.6270   32.9620 C   0  0  0  0  0  3  0  0  0  0  0  0
   35.2150   18.3890   32.3440 C   0  0  0  0  0  0  0  0  0  0  0  0
   34.7500   17.5380   32.8390 H   0  0  0  0  0  0  0  0  0  0  0  0
   35.7320   18.3920   31.0870 N   0  0  0  0  0  0  0  0  0  0  0  0
   36.1960   19.6260   30.8770 N   0  0  0  0  0  0  0  0  0  0  0  0
   35.7480   17.5760   30.4440 H   0  0  0  0  0  0  0  0  0  0  0  0
  1  8  1  0  0  0  0
  2  6  1  0  0  0  0
  2  1  2  0  0  0  0
  3  4  2  0  0  0  0
  3  2  1  0  0  0  0
  4  5  1  0  0  0  0
  5  1  1  0  0  0  0
  5 17  1  0  0  0  0
  7  4  1  0  0  0  0
  8 13  2  0  0  0  0
  8  9  1  0  0  0  0
  9 10  2  0  0  0  0
 10 11  1  0  0  0  0
 10 15  1  0  0  0  0
 12 16  1  0  0  0  0
 12 11  2  0  0  0  0
 13 12  1  0  0  0  0
 14  9  1  0  0  0  0
 17 20  1  6  0  0  0
 17 18  1  0  0  0  0
 18 22  1  0  0  0  0
 18 21  1  0  0  0  0
 19 23  1  6  0  0  0
 19 17  1  0  0  0  0
 19 18  1  0  0  0  0
 24 19  1  0  0  0  0
 24 25  1  0  0  0  0
 26 27  1  0  0  0  0
 26 25  2  0  0  0  0
 28 26  1  0  0  0  0
 29 28  1  0  0  0  0
 29 24  2  0  0  0  0
 30 28  1  0  0  0  0
M  END
>  <minimizedAffinity>
-3.96744037

>  <minimizedRMSD>
2.67030835

$$$$
