
 OpenBabel03262519143D

 23 25  0  0  0  0  0  0  0  0999 V2000
   38.2170   25.2000   34.8730 C   0  0  0  0  0  0  0  0  0  0  0  0
   39.2260   24.3800   34.4010 C   0  0  0  0  0  0  0  0  0  0  0  0
   39.8070   23.5180   35.2640 C   0  0  0  0  0  0  0  0  0  0  0  0
   39.3490   23.5090   36.5870 C   0  0  0  0  0  0  0  0  0  0  0  0
   38.0180   24.8010   36.5930 S   0  0  0  0  0  0  0  0  0  0  0  0
   39.5510   24.4200   33.3630 H   0  0  0  0  0  0  0  0  0  0  0  0
   40.6010   22.8130   35.0700 H   0  0  0  0  0  0  0  0  0  0  0  0
   37.1590   26.0590   32.7560 C   0  0  0  0  0  0  0  0  0  0  0  0
   37.4840   26.1790   34.1050 C   0  0  0  0  0  0  0  0  0  0  0  0
   37.0860   27.3240   34.7960 C   0  0  0  0  0  0  0  0  0  0  0  0
   36.3950   28.2610   34.0920 N   0  0  0  0  0  0  0  0  0  0  0  0
   36.0970   28.1070   32.7760 C   0  0  0  0  0  0  0  0  0  0  0  0
   36.4860   27.0000   32.1220 N   0  0  0  0  0  0  0  0  0  0  0  0
   37.4770   25.1670   32.2460 H   0  0  0  0  0  0  0  0  0  0  0  0
   37.2570   27.5640   35.8270 H   0  0  0  0  0  0  0  0  0  0  0  0
   35.3390   29.1500   32.0350 C   0  0  0  0  0  0  0  0  0  0  0  0
   35.3600   30.5590   32.5000 C   0  0  0  0  0  0  0  0  0  0  0  0
   34.1400   29.6850   32.7260 C   0  0  0  0  0  0  0  0  0  0  0  0
   39.6880   22.7790   37.7390 C   0  0  0  0  0  0  0  0  0  0  0  0
   40.7210   22.0780   37.7480 O   0  0  0  0  0  0  0  0  0  0  0  0
   38.8970   22.7990   38.9200 N   0  0  0  0  0  0  0  0  0  0  0  0
   39.1570   23.1860   39.8600 H   0  0  0  0  0  0  0  0  0  0  0  0
   37.9400   22.3640   38.8020 H   0  0  0  0  0  0  0  0  0  0  0  0
  1  5  1  0  0  0  0
  2  1  2  0  0  0  0
  2  3  1  0  0  0  0
  3  4  2  0  0  0  0
  4  5  1  0  0  0  0
  4 19  1  0  0  0  0
  6  2  1  0  0  0  0
  7  3  1  0  0  0  0
  8  9  1  0  0  0  0
  9 10  2  0  0  0  0
  9  1  1  0  0  0  0
 10 15  1  0  0  0  0
 11 10  1  0  0  0  0
 12 11  2  0  0  0  0
 13  8  2  0  0  0  0
 13 12  1  0  0  0  0
 14  8  1  0  0  0  0
 16 17  1  0  0  0  0
 16 18  1  0  0  0  0
 16 12  1  0  0  0  0
 17 18  1  0  0  0  0
 19 20  2  0  0  0  0
 19 21  1  0  0  0  0
 21 22  1  0  0  0  0
 23 21  1  0  0  0  0
M  END
>  <minimizedAffinity>
-4.71851015

>  <minimizedRMSD>
7.6302495

$$$$
