
 OpenBabel03262519373D

 27 29  0  0  1  0  0  0  0  0999 V2000
   37.8750   24.8360   33.8730 N   0  0  0  0  0  0  0  0  0  0  0  0
   37.6200   23.6320   33.1350 C   0  0  0  0  0  0  0  0  0  0  0  0
   36.7480   24.0610   31.9790 C   0  0  0  0  0  0  0  0  0  0  0  0
   36.6420   25.5880   32.1280 C   0  0  0  0  0  0  0  0  0  0  0  0
   37.9750   25.8300   32.8490 C   0  0  1  0  0  0  0  0  0  0  0  0
   37.0630   22.9410   33.8120 H   0  0  0  0  0  0  0  0  0  0  0  0
   38.5460   23.1730   32.7300 H   0  0  0  0  0  0  0  0  0  0  0  0
   37.1340   23.7740   31.0010 H   0  0  0  0  0  0  0  0  0  0  0  0
   35.7020   23.7040   32.1590 H   0  0  0  0  0  0  0  0  0  0  0  0
   35.8320   25.8730   32.8000 H   0  0  0  0  0  0  0  0  0  0  0  0
   36.6950   26.0980   31.1690 H   0  0  0  0  0  0  0  0  0  0  0  0
   38.8370   25.6980   32.1730 H   0  0  0  0  0  0  0  0  0  0  0  0
   39.1540   24.7860   34.5610 C   0  0  0  0  0  0  0  0  0  0  0  0
   39.7080   25.7310   34.4900 H   0  0  0  0  0  0  0  0  0  0  0  0
   39.7500   24.0270   33.9940 H   0  0  0  0  0  0  0  0  0  0  0  0
   37.9540   24.2200   38.0920 C   0  0  0  0  0  0  0  0  0  0  0  0
   38.0540   24.7180   36.8000 C   0  0  0  0  0  0  0  0  0  0  0  0
   39.0440   24.2560   35.9390 C   0  0  0  0  0  0  0  0  0  0  0  0
   39.8990   23.3030   36.4150 N   0  0  0  0  0  0  0  0  0  0  0  0
   39.7890   22.8250   37.6820 C   0  0  0  0  0  0  0  0  0  0  0  0
   38.8250   23.2800   38.5080 N   0  0  0  0  0  0  0  0  0  0  0  0
   37.1910   24.5600   38.7910 H   0  0  0  0  0  0  0  0  0  0  0  0
   37.3440   25.4570   36.5170 H   0  0  0  0  0  0  0  0  0  0  0  0
   40.4620   22.0830   38.0380 H   0  0  0  0  0  0  0  0  0  0  0  0
   37.8810   27.2370   33.3790 C   0  0  0  0  0  0  0  0  0  0  0  0
   36.8370   27.3750   34.5080 C   0  0  0  0  0  0  0  0  0  0  0  0
   36.7040   28.0800   33.1750 C   0  0  0  0  0  0  0  0  0  0  0  0
  1 13  1  0  0  0  0
  2  6  1  0  0  0  0
  2  1  1  0  0  0  0
  3  4  1  0  0  0  0
  3  9  1  0  0  0  0
  3  2  1  0  0  0  0
  4 10  1  0  0  0  0
  4  5  1  0  0  0  0
  5 12  1  6  0  0  0
  5 25  1  0  0  0  0
  5  1  1  0  0  0  0
  7  2  1  0  0  0  0
  8  3  1  0  0  0  0
 11  4  1  0  0  0  0
 13 18  1  0  0  0  0
 14 13  1  0  0  0  0
 15 13  1  0  0  0  0
 16 21  1  0  0  0  0
 16 22  1  0  0  0  0
 17 16  2  0  0  0  0
 18 19  2  0  0  0  0
 18 17  1  0  0  0  0
 19 20  1  0  0  0  0
 20 24  1  0  0  0  0
 20 21  2  0  0  0  0
 23 17  1  0  0  0  0
 25 26  1  0  0  0  0
 27 25  1  0  0  0  0
 27 26  1  0  0  0  0
M  END
>  <minimizedAffinity>
-4.14608335

>  <minimizedRMSD>
1.61181402

$$$$
