
 OpenBabel03262519533D

 28 30  0  0  1  0  0  0  0  0999 V2000
   39.1770   24.7440   35.1270 C   0  0  0  0  0  0  0  0  0  0  0  0
   38.1220   24.6800   35.1380 H   0  0  0  0  0  0  0  0  0  0  0  0
   39.3930   24.4480   34.0330 H   0  0  0  0  0  0  0  0  0  0  0  0
   40.4240   22.4670   37.5870 C   0  0  0  0  0  0  0  0  0  0  0  0
   39.5010   23.3600   36.9880 C   0  0  0  0  0  0  0  0  0  0  0  0
   40.0110   23.8630   35.8510 C   0  0  0  0  0  0  0  0  0  0  0  0
   41.2680   23.5300   35.3670 N   0  0  0  0  0  0  0  0  0  0  0  0
   42.0780   22.6810   35.9900 C   0  0  0  0  0  0  0  0  0  0  0  0
   41.6500   22.1460   37.1110 N   0  0  0  0  0  0  0  0  0  0  0  0
   40.2090   21.9400   38.5350 H   0  0  0  0  0  0  0  0  0  0  0  0
   43.0180   22.4900   35.5410 H   0  0  0  0  0  0  0  0  0  0  0  0
   38.2840   23.5210   37.6790 C   0  0  0  0  0  0  0  0  0  0  0  0
   38.1100   24.8600   38.1410 F   0  0  0  0  0  0  0  0  0  0  0  0
   38.1050   23.0610   38.9300 F   0  0  0  0  0  0  0  0  0  0  0  0
   37.0890   23.6370   36.9530 F   0  0  0  0  0  0  0  0  0  0  0  0
   39.5570   26.1430   35.1920 C   0  0  0  0  0  0  0  0  0  0  0  0
   40.1210   26.5360   34.3210 H   0  0  0  0  0  0  0  0  0  0  0  0
   40.2780   26.2800   36.0530 H   0  0  0  0  0  0  0  0  0  0  0  0
   38.3510   27.0320   35.5150 C   0  0  2  0  0  0  0  0  0  0  0  0
   37.0870   26.4660   35.3020 C   0  0  0  0  0  0  0  0  0  0  0  0
   37.4980   27.5150   34.4260 C   0  0  1  0  0  0  0  0  0  0  0  0
   38.5190   27.5890   36.4850 H   0  0  0  0  0  0  0  0  0  0  0  0
   36.3200   26.5990   36.1350 H   0  0  0  0  0  0  0  0  0  0  0  0
   37.0380   25.3760   35.0540 H   0  0  0  0  0  0  0  0  0  0  0  0
   38.2610   28.2490   34.1830 H   0  0  0  0  0  0  0  0  0  0  0  0
   36.2870   28.0840   33.9610 C   0  0  0  0  0  0  0  0  0  0  0  0
   35.8670   29.5350   33.8910 C   0  0  0  0  0  0  0  0  0  0  0  0
   36.3120   28.8750   32.6420 C   0  0  0  0  0  0  0  0  0  0  0  0
  1  2  1  0  0  0  0
  1 16  1  0  0  0  0
  1  6  1  0  0  0  0
  3  1  1  0  0  0  0
  4 10  1  0  0  0  0
  5  4  2  0  0  0  0
  5 12  1  0  0  0  0
  6  5  1  0  0  0  0
  7  6  2  0  0  0  0
  7  8  1  0  0  0  0
  8  9  2  0  0  0  0
  9  4  1  0  0  0  0
 11  8  1  0  0  0  0
 12 13  1  0  0  0  0
 12 14  1  0  0  0  0
 15 12  1  0  0  0  0
 16 19  1  0  0  0  0
 16 18  1  0  0  0  0
 17 16  1  0  0  0  0
 19 22  1  1  0  0  0
 20 19  1  0  0  0  0
 20 23  1  0  0  0  0
 21 25  1  6  0  0  0
 21 20  1  0  0  0  0
 21 19  1  0  0  0  0
 24 20  1  0  0  0  0
 26 21  1  0  0  0  0
 27 26  1  0  0  0  0
 28 27  1  0  0  0  0
 28 26  1  0  0  0  0
M  END
>  <minimizedAffinity>
-4.7763772

>  <minimizedRMSD>
4.56953478

$$$$
