
 OpenBabel03262519433D

 26 27  0  0  1  0  0  0  0  0999 V2000
   38.2470   24.3300   36.8300 C   0  0  1  0  0  0  0  0  0  0  0  0
   37.3340   23.9480   36.2820 H   0  0  0  0  0  0  0  0  0  0  0  0
   41.0400   21.8490   37.4760 C   0  0  0  0  0  0  0  0  0  0  0  0
   39.9800   22.7590   37.7270 C   0  0  0  0  0  0  0  0  0  0  0  0
   39.3450   23.3720   36.6200 C   0  0  0  0  0  0  0  0  0  0  0  0
   39.7890   23.0530   35.3580 N   0  0  0  0  0  0  0  0  0  0  0  0
   40.7930   22.1890   35.1630 C   0  0  0  0  0  0  0  0  0  0  0  0
   41.4280   21.5800   36.2100 N   0  0  0  0  0  0  0  0  0  0  0  0
   41.5550   21.3570   38.2760 H   0  0  0  0  0  0  0  0  0  0  0  0
   39.6750   22.9700   38.7420 H   0  0  0  0  0  0  0  0  0  0  0  0
   41.0660   22.0070   34.1230 H   0  0  0  0  0  0  0  0  0  0  0  0
   37.8310   24.4010   38.2850 C   0  0  0  0  0  0  0  0  0  0  0  0
   38.7630   24.6000   38.8770 H   0  0  0  0  0  0  0  0  0  0  0  0
   37.1130   25.2350   38.4210 H   0  0  0  0  0  0  0  0  0  0  0  0
   37.4290   23.4310   38.6460 H   0  0  0  0  0  0  0  0  0  0  0  0
   38.5860   25.7280   36.3680 C   0  0  0  0  0  0  0  0  0  0  0  0
   39.6960   25.7220   36.2200 H   0  0  0  0  0  0  0  0  0  0  0  0
   38.3940   26.4290   37.2050 H   0  0  0  0  0  0  0  0  0  0  0  0
   37.9030   26.1950   35.1770 C   0  0  0  0  0  0  0  0  0  0  0  0
   37.4050   27.4840   35.2160 C   0  0  0  0  0  0  0  0  0  0  0  0
   36.7470   28.0940   34.1920 C   0  0  0  0  0  0  0  0  0  0  0  0
   36.3620   29.1070   34.2350 H   0  0  0  0  0  0  0  0  0  0  0  0
   36.5470   27.3970   33.0080 C   0  0  0  0  0  0  0  0  0  0  0  0
   37.0270   26.1040   32.9200 C   0  0  0  0  0  0  0  0  0  0  0  0
   36.8770   25.5540   32.0050 H   0  0  0  0  0  0  0  0  0  0  0  0
   37.6900   25.5190   33.9790 C   0  0  0  0  0  0  0  0  0  0  0  0
  1  2  1  6  0  0  0
  1 12  1  0  0  0  0
  3  4  1  0  0  0  0
  3  9  1  0  0  0  0
  4 10  1  0  0  0  0
  5  1  1  0  0  0  0
  5  4  2  0  0  0  0
  6  5  1  0  0  0  0
  7  6  2  0  0  0  0
  7  8  1  0  0  0  0
  8  3  2  0  0  0  0
 11  7  1  0  0  0  0
 12 14  1  0  0  0  0
 12 15  1  0  0  0  0
 12 13  1  0  0  0  0
 16  1  1  0  0  0  0
 16 18  1  0  0  0  0
 17 16  1  0  0  0  0
 19 20  1  0  0  0  0
 19 16  1  0  0  0  0
 21 22  1  0  0  0  0
 21 20  2  0  0  0  0
 23 21  1  0  0  0  0
 24 23  2  0  0  0  0
 24 26  1  0  0  0  0
 25 24  1  0  0  0  0
 26 19  2  0  0  0  0
M  END
>  <minimizedAffinity>
-4.35035896

>  <minimizedRMSD>
1.18688548

$$$$
