REMARK  Name = 
REMARK  3 active torsions:
REMARK  status: ('A' for Active; 'I' for Inactive)
REMARK    1  A    between atoms: C_1  and  C_6
REMARK    2  A    between atoms: N_5  and  C_12
REMARK    3  A    between atoms: C_14  and  C_24
REMARK                            x       y       z     vdW  Elec       q    Type
REMARK                         _______ _______ _______ _____ _____    ______ ____
ROOT
ATOM      1  C   UNL     1      38.029  23.472  34.617  0.00  0.00    +0.000 A 
ATOM      2  C   UNL     1      38.263  24.567  33.798  0.00  0.00    +0.000 A 
ATOM      3  N   UNL     1      37.765  24.179  32.590  0.00  0.00    +0.000 NA
ATOM      4  C   UNL     1      37.285  22.951  32.718  0.00  0.00    +0.000 A 
ATOM      5  N   UNL     1      37.428  22.473  33.963  0.00  0.00    +0.000 N 
ATOM      6  H   UNL     1      38.728  25.486  34.081  0.00  0.00    +0.000 HD
ATOM      7  H   UNL     1      36.824  22.400  31.890  0.00  0.00    +0.000 HD
ENDROOT
BRANCH   1   8
ATOM      8  C   UNL     1      38.390  23.402  36.025  0.00  0.00    +0.000 A 
ATOM      9  C   UNL     1      39.592  22.807  36.425  0.00  0.00    +0.000 A 
ATOM     10  C   UNL     1      39.898  22.762  37.806  0.00  0.00    +0.000 A 
ATOM     11  N   UNL     1      39.009  23.299  38.653  0.00  0.00    +0.000 NA
ATOM     12  C   UNL     1      37.853  23.870  38.255  0.00  0.00    +0.000 A 
ATOM     13  N   UNL     1      37.552  23.917  36.943  0.00  0.00    +0.000 NA
ATOM     14  H   UNL     1      40.280  22.387  35.713  0.00  0.00    +0.000 HD
ATOM     15  H   UNL     1      40.811  22.315  38.168  0.00  0.00    +0.000 HD
ATOM     16  H   UNL     1      37.116  24.311  38.912  0.00  0.00    +0.000 HD
ENDBRANCH   1   8
BRANCH   5  17
ATOM     17  C   UNL     1      37.001  21.174  34.389  0.00  0.00    +0.000 C 
ATOM     18  C   UNL     1      35.852  20.956  35.252  0.00  0.00    +0.000 C 
ATOM     19  C   UNL     1      35.658  20.777  33.771  0.00  0.00    +0.000 C 
ATOM     20  H   UNL     1      37.800  20.410  34.386  0.00  0.00    +0.000 HD
ATOM     21  H   UNL     1      35.851  20.062  35.901  0.00  0.00    +0.000 HD
ATOM     22  H   UNL     1      35.400  21.848  35.765  0.00  0.00    +0.000 HD
ATOM     23  H   UNL     1      35.058  21.528  33.233  0.00  0.00    +0.000 HD
BRANCH  19  24
ATOM     24  C   UNL     1      35.450  19.378  33.314  0.00  0.00    +0.000 C 
ATOM     25  C   UNL     1      36.685  18.488  33.157  0.00  0.00    +0.000 C 
ATOM     26  C   UNL     1      35.631  18.208  34.194  0.00  0.00    +0.000 C 
ENDBRANCH  19  24
ENDBRANCH   5  17
TORSDOF 3
