
 OpenBabel03262515113D

 40 43  0  0  0  0  0  0  0  0999 V2000
   42.0740   24.1680   33.4450 C   0  0  0  0  0  0  0  0  0  0  0  0
   43.1090   24.5140   33.1000 H   0  0  0  0  0  0  0  0  0  0  0  0
   42.0760   23.1400   33.1690 H   0  0  0  0  0  0  0  0  0  0  0  0
   41.2330   25.0000   32.5410 N   0  0  0  0  0  0  0  0  0  0  0  0
   41.6120   26.2240   32.0820 C   0  0  0  0  0  0  0  0  0  0  0  0
   40.6390   26.7210   31.2840 N   0  0  0  0  0  0  0  0  0  0  0  0
   39.6390   25.8170   31.2310 C   0  0  0  0  0  0  0  0  0  0  0  0
   38.3980   25.6960   30.6230 C   0  0  0  0  0  0  0  0  0  0  0  0
   37.6300   24.5990   30.8040 N   0  0  0  0  0  0  0  0  0  0  0  0
   38.0330   23.5740   31.5790 C   0  0  0  0  0  0  0  0  0  0  0  0
   39.2430   23.6750   32.1820 N   0  0  0  0  0  0  0  0  0  0  0  0
   40.0150   24.7690   32.0050 C   0  0  0  0  0  0  0  0  0  0  0  0
   37.9940   26.8040   29.8000 N   0  0  0  0  0  0  0  0  0  0  0  0
   42.5400   26.7270   32.3140 H   0  0  0  0  0  0  0  0  0  0  0  0
   37.6270   27.7150   30.1680 H   0  0  0  0  0  0  0  0  0  0  0  0
   38.0860   26.6550   28.7550 H   0  0  0  0  0  0  0  0  0  0  0  0
   37.2010   22.3780   31.7770 C   0  0  0  0  0  0  0  0  0  0  0  0
   35.7090   22.6700   31.6270 C   0  0  0  0  0  0  0  0  0  0  0  0
   35.0130   21.5140   32.3230 C   0  0  0  0  0  0  0  0  0  0  0  0
   35.3800   20.1990   31.7050 C   0  0  0  0  0  0  0  0  0  0  0  0
   36.8160   20.0260   31.3560 C   0  0  0  0  0  0  0  0  0  0  0  0
   37.4760   21.2660   30.7820 C   0  0  0  0  0  0  0  0  0  0  0  0
   41.8870   24.6080   34.8440 C   0  0  0  0  0  0  0  0  0  0  0  0
   42.4290   21.5590   36.9020 C   0  0  0  0  0  0  0  0  0  0  0  0
   42.6720   22.6050   36.0000 C   0  0  0  0  0  0  0  0  0  0  0  0
   41.6600   23.5110   35.7490 C   0  0  0  0  0  0  0  0  0  0  0  0
   40.4830   23.3440   36.3840 N   0  0  0  0  0  0  0  0  0  0  0  0
   40.2720   22.3320   37.2460 C   0  0  0  0  0  0  0  0  0  0  0  0
   41.2290   21.4440   37.5080 N   0  0  0  0  0  0  0  0  0  0  0  0
   43.1140   20.7660   37.2100 H   0  0  0  0  0  0  0  0  0  0  0  0
   43.6810   22.4840   35.6440 H   0  0  0  0  0  0  0  0  0  0  0  0
   39.2980   22.2550   37.7250 H   0  0  0  0  0  0  0  0  0  0  0  0
   40.8370   25.7190   35.0090 C   0  0  0  0  0  0  0  0  0  0  0  0
   41.0040   26.2090   35.9710 H   0  0  0  0  0  0  0  0  0  0  0  0
   41.0050   26.4150   34.1780 H   0  0  0  0  0  0  0  0  0  0  0  0
   39.8030   25.2870   34.9290 H   0  0  0  0  0  0  0  0  0  0  0  0
   43.1710   25.3700   35.2910 C   0  0  0  0  0  0  0  0  0  0  0  0
   43.2580   25.3610   36.3760 H   0  0  0  0  0  0  0  0  0  0  0  0
   43.9980   24.7840   34.8460 H   0  0  0  0  0  0  0  0  0  0  0  0
   43.1540   26.3950   34.8410 H   0  0  0  0  0  0  0  0  0  0  0  0
  1 23  1  0  0  0  0
  2  1  1  0  0  0  0
  3  1  1  0  0  0  0
  4  1  1  0  0  0  0
  5 14  1  0  0  0  0
  5  4  1  0  0  0  0
  6  5  2  0  0  0  0
  7  6  1  0  0  0  0
  7 12  1  0  0  0  0
  8  9  1  0  0  0  0
  8  7  2  0  0  0  0
  9 10  2  0  0  0  0
 10 17  1  0  0  0  0
 10 11  1  0  0  0  0
 12 11  2  0  0  0  0
 12  4  1  0  0  0  0
 13 15  1  0  0  0  0
 13  8  1  0  0  0  0
 16 13  1  0  0  0  0
 18 17  1  0  0  0  0
 18 19  1  0  0  0  0
 20 19  1  0  0  0  0
 21 20  1  0  0  0  0
 22 21  1  0  0  0  0
 22 17  1  0  0  0  0
 23 33  1  0  0  0  0
 23 37  1  0  0  0  0
 23 26  1  0  0  0  0
 24 30  1  0  0  0  0
 24 29  1  0  0  0  0
 25 24  2  0  0  0  0
 26 25  1  0  0  0  0
 26 27  2  0  0  0  0
 27 28  1  0  0  0  0
 28 29  2  0  0  0  0
 28 32  1  0  0  0  0
 31 25  1  0  0  0  0
 33 34  1  0  0  0  0
 35 33  1  0  0  0  0
 36 33  1  0  0  0  0
 37 38  1  0  0  0  0
 39 37  1  0  0  0  0
 40 37  1  0  0  0  0
M  END
>  <minimizedAffinity>
-5.02095079

>  <minimizedRMSD>
7.90117407

$$$$
