
 OpenBabel03262519583D

 29 32  0  0  1  0  0  0  0  0999 V2000
   38.1840   24.0890   34.4990 C   0  0  0  0  0  0  0  0  0  0  0  0
   38.3240   25.3560   33.9420 C   0  0  0  0  0  0  0  0  0  0  0  0
   37.9240   25.1830   32.6400 N   0  0  0  0  0  0  0  0  0  0  0  0
   37.5870   23.9210   32.4800 C   0  0  0  0  0  0  0  0  0  0  0  0
   37.7360   23.2110   33.6120 N   0  0  0  0  0  0  0  0  0  0  0  0
   38.6650   26.2580   34.4210 H   0  0  0  0  0  0  0  0  0  0  0  0
   37.2270   23.4960   31.5350 H   0  0  0  0  0  0  0  0  0  0  0  0
   38.4930   23.7550   35.8900 C   0  0  0  0  0  0  0  0  0  0  0  0
   39.6900   23.0890   36.2120 C   0  0  0  0  0  0  0  0  0  0  0  0
   39.9230   22.7980   37.5790 C   0  0  0  0  0  0  0  0  0  0  0  0
   38.9880   23.1750   38.4770 N   0  0  0  0  0  0  0  0  0  0  0  0
   37.8520   23.8120   38.1260 C   0  0  0  0  0  0  0  0  0  0  0  0
   37.5840   24.1130   36.8340 N   0  0  0  0  0  0  0  0  0  0  0  0
   40.3970   22.8150   35.4410 H   0  0  0  0  0  0  0  0  0  0  0  0
   40.8220   22.2920   37.8650 H   0  0  0  0  0  0  0  0  0  0  0  0
   37.0970   24.1180   38.8370 H   0  0  0  0  0  0  0  0  0  0  0  0
   37.4470   21.8040   33.7420 C   0  0  1  0  0  0  0  0  0  0  0  0
   36.3490   21.3020   34.5470 C   0  0  0  0  0  0  0  0  0  0  0  0
   36.1650   21.3870   33.0570 C   0  0  2  0  0  0  0  0  0  0  0  0
   38.2990   21.1390   33.5070 H   0  0  0  0  0  0  0  0  0  0  0  0
   35.7890   22.0420   35.1410 H   0  0  0  0  0  0  0  0  0  0  0  0
   36.5070   20.3110   35.0230 H   0  0  0  0  0  0  0  0  0  0  0  0
   35.4990   22.1700   32.6380 H   0  0  0  0  0  0  0  0  0  0  0  0
   36.0940   20.0830   32.3470 C   0  0  0  0  0  3  0  0  0  0  0  0
   35.5480   18.9560   33.1900 C   0  0  0  0  0  2  0  0  0  0  0  0
   35.2790   17.7980   32.2530 C   0  0  0  0  0  2  0  0  0  0  0  0
   36.4370   17.4080   31.4020 C   0  0  0  0  0  2  0  0  0  0  0  0
   37.1610   18.5690   30.7890 C   0  0  0  0  0  2  0  0  0  0  0  0
   37.4460   19.6030   31.8590 C   0  0  0  0  0  2  0  0  0  0  0  0
  1  8  1  0  0  0  0
  2  6  1  0  0  0  0
  2  1  2  0  0  0  0
  3  2  1  0  0  0  0
  4  3  2  0  0  0  0
  4  5  1  0  0  0  0
  5 17  1  0  0  0  0
  5  1  1  0  0  0  0
  7  4  1  0  0  0  0
  8  9  2  0  0  0  0
  8 13  1  0  0  0  0
  9 10  1  0  0  0  0
 10 15  1  0  0  0  0
 10 11  2  0  0  0  0
 12 11  1  0  0  0  0
 12 16  1  0  0  0  0
 13 12  2  0  0  0  0
 14  9  1  0  0  0  0
 17 20  1  6  0  0  0
 17 18  1  0  0  0  0
 18 22  1  0  0  0  0
 18 21  1  0  0  0  0
 19 23  1  6  0  0  0
 19 17  1  0  0  0  0
 19 18  1  0  0  0  0
 24 19  1  0  0  0  0
 24 25  1  0  0  0  0
 26 25  1  0  0  0  0
 27 26  1  0  0  0  0
 28 27  1  0  0  0  0
 28 29  1  0  0  0  0
 29 24  1  0  0  0  0
M  END
>  <minimizedAffinity>
-4.87903166

>  <minimizedRMSD>
1.08442116

$$$$
