
 OpenBabel03262519413D

 38 41  0  0  1  0  0  0  0  0999 V2000
   38.0300   25.0960   34.3110 N   0  0  0  0  0  0  0  0  0  0  0  0
   37.8220   25.2310   32.8850 C   0  0  0  0  0  0  0  0  0  0  0  0
   38.2340   26.6250   32.5540 C   0  0  0  0  0  0  0  0  0  0  0  0
   38.7060   27.2030   33.8740 C   0  0  0  0  0  0  0  0  0  0  0  0
   39.1850   25.8910   34.5660 C   0  0  2  0  0  0  0  0  0  0  0  0
   36.8050   24.9550   32.5630 H   0  0  0  0  0  0  0  0  0  0  0  0
   38.5520   24.5440   32.3680 H   0  0  0  0  0  0  0  0  0  0  0  0
   39.0660   26.6950   31.8300 H   0  0  0  0  0  0  0  0  0  0  0  0
   37.3400   27.1810   32.1730 H   0  0  0  0  0  0  0  0  0  0  0  0
   39.5970   27.8470   33.7710 H   0  0  0  0  0  0  0  0  0  0  0  0
   37.8950   27.6240   34.4720 H   0  0  0  0  0  0  0  0  0  0  0  0
   39.3970   26.1320   35.6150 H   0  0  0  0  0  0  0  0  0  0  0  0
   38.3440   23.7460   34.6770 C   0  0  0  0  0  0  0  0  0  0  0  0
   39.2860   23.4530   34.2030 H   0  0  0  0  0  0  0  0  0  0  0  0
   37.4770   23.1090   34.3930 H   0  0  0  0  0  0  0  0  0  0  0  0
   37.8310   24.0000   38.4240 C   0  0  0  0  0  0  0  0  0  0  0  0
   37.6040   24.1670   37.0580 C   0  0  0  0  0  0  0  0  0  0  0  0
   38.5300   23.6040   36.1550 C   0  0  0  0  0  0  0  0  0  0  0  0
   39.5930   22.9290   36.6850 N   0  0  0  0  0  0  0  0  0  0  0  0
   39.7610   22.8000   38.0090 C   0  0  0  0  0  0  0  0  0  0  0  0
   38.8790   23.3370   38.8660 N   0  0  0  0  0  0  0  0  0  0  0  0
   37.0730   24.4630   39.0430 H   0  0  0  0  0  0  0  0  0  0  0  0
   36.7540   24.7060   36.6520 H   0  0  0  0  0  0  0  0  0  0  0  0
   40.5890   22.2750   38.4520 H   0  0  0  0  0  0  0  0  0  0  0  0
   40.3170   25.4010   33.9860 O   0  0  0  0  0  0  0  0  0  0  0  0
   41.4300   25.4080   34.7760 C   0  0  2  0  0  0  0  0  0  0  0  0
   42.7400   25.2680   34.0390 C   0  0  0  0  0  0  0  0  0  0  0  0
   42.2610   24.1820   34.9610 C   0  0  1  0  0  0  0  0  0  0  0  0
   41.3000   25.9250   35.7350 H   0  0  0  0  0  0  0  0  0  0  0  0
   42.7210   24.9850   32.9680 H   0  0  0  0  0  0  0  0  0  0  0  0
   43.5550   25.9450   34.3610 H   0  0  0  0  0  0  0  0  0  0  0  0
   41.8910   23.2320   34.5480 H   0  0  0  0  0  0  0  0  0  0  0  0
   43.1010   24.0170   36.1950 C   0  0  0  0  0  0  0  0  0  0  0  0
   43.6350   22.6370   36.3800 C   0  0  0  0  0  0  0  0  0  0  0  0
   45.0380   22.4310   35.9510 C   0  0  0  0  0  0  0  0  0  0  0  0
   46.0040   23.5200   36.2360 C   0  0  0  0  0  0  0  0  0  0  0  0
   45.3970   24.6850   36.9410 C   0  0  0  0  0  0  0  0  0  0  0  0
   44.1760   25.0780   36.1400 C   0  0  0  0  0  0  0  0  0  0  0  0
  1  5  1  0  0  0  0
  1 13  1  0  0  0  0
  2  1  1  0  0  0  0
  3  2  1  0  0  0  0
  3  4  1  0  0  0  0
  4 11  1  0  0  0  0
  4  5  1  0  0  0  0
  5 12  1  1  0  0  0
  6  2  1  0  0  0  0
  7  2  1  0  0  0  0
  8  3  1  0  0  0  0
  9  3  1  0  0  0  0
 10  4  1  0  0  0  0
 13 18  1  0  0  0  0
 14 13  1  0  0  0  0
 15 13  1  0  0  0  0
 16 21  1  0  0  0  0
 16 22  1  0  0  0  0
 17 16  2  0  0  0  0
 18 19  2  0  0  0  0
 18 17  1  0  0  0  0
 19 20  1  0  0  0  0
 20 24  1  0  0  0  0
 20 21  2  0  0  0  0
 23 17  1  0  0  0  0
 25  5  1  0  0  0  0
 25 26  1  0  0  0  0
 26 28  1  0  0  0  0
 26 29  1  1  0  0  0
 27 31  1  0  0  0  0
 27 26  1  0  0  0  0
 27 28  1  0  0  0  0
 28 32  1  6  0  0  0
 28 33  1  0  0  0  0
 30 27  1  0  0  0  0
 33 34  1  0  0  0  0
 35 36  1  0  0  0  0
 35 34  1  0  0  0  0
 36 37  1  0  0  0  0
 38 33  1  0  0  0  0
 38 37  1  0  0  0  0
M  END
>  <minimizedAffinity>
-4.85918522

>  <minimizedRMSD>
2.33703947

$$$$
