
 OpenBabel03262513433D

 27 29  0  0  1  0  0  0  0  0999 V2000
   39.2070   22.7280   36.8520 C   0  0  0  0  0  0  0  0  0  0  0  0
   39.4200   23.5830   35.7720 C   0  0  0  0  0  0  0  0  0  0  0  0
   40.7350   23.9090   35.4430 C   0  0  0  0  0  0  0  0  0  0  0  0
   41.7580   23.3680   36.2030 N   0  0  0  0  0  0  0  0  0  0  0  0
   41.5080   22.5390   37.2450 C   0  0  0  0  0  0  0  0  0  0  0  0
   40.2490   22.2230   37.5650 N   0  0  0  0  0  0  0  0  0  0  0  0
   41.0810   24.7550   34.3820 N   0  0  0  0  0  0  0  0  0  0  0  0
   41.8220   26.0170   34.3530 C   0  0  0  0  0  0  0  0  0  0  0  0
   41.0030   26.7680   33.3440 C   0  0  1  0  0  0  0  0  0  0  0  0
   40.9790   25.7420   32.2220 C   0  0  0  0  0  0  0  0  0  0  0  0
   40.7210   24.4790   33.0010 C   0  0  0  0  0  0  0  0  0  0  0  0
   38.1560   22.5240   37.0420 H   0  0  0  0  0  0  0  0  0  0  0  0
   38.6330   24.0060   35.1790 H   0  0  0  0  0  0  0  0  0  0  0  0
   42.3310   22.1340   37.8160 H   0  0  0  0  0  0  0  0  0  0  0  0
   41.9030   26.4750   35.3400 H   0  0  0  0  0  0  0  0  0  0  0  0
   42.8200   25.8160   33.8960 H   0  0  0  0  0  0  0  0  0  0  0  0
   41.5740   27.6770   32.9960 H   0  0  0  0  0  0  0  0  0  0  0  0
   42.0180   25.7650   31.7930 H   0  0  0  0  0  0  0  0  0  0  0  0
   40.2630   25.9590   31.4320 H   0  0  0  0  0  0  0  0  0  0  0  0
   39.7030   24.0760   32.8840 H   0  0  0  0  0  0  0  0  0  0  0  0
   41.4830   23.7310   32.6470 H   0  0  0  0  0  0  0  0  0  0  0  0
   39.6710   27.2220   33.7760 C   0  0  0  0  0  0  0  0  0  0  0  0
   38.6220   26.3600   33.1210 C   0  0  0  0  0  0  0  0  0  0  0  0
   37.2620   26.9410   33.4850 C   0  0  0  0  0  0  0  0  0  0  0  0
   37.0650   26.7260   34.9520 C   0  0  0  0  0  0  0  0  0  0  0  0
   38.1550   27.3490   35.7870 C   0  0  0  0  0  0  0  0  0  0  0  0
   39.5240   27.1020   35.2720 C   0  0  0  0  0  0  0  0  0  0  0  0
  1 12  1  0  0  0  0
  1  6  1  0  0  0  0
  2  1  2  0  0  0  0
  3  2  1  0  0  0  0
  3  4  2  0  0  0  0
  4  5  1  0  0  0  0
  5  6  2  0  0  0  0
  5 14  1  0  0  0  0
  7  3  1  0  0  0  0
  8  7  1  0  0  0  0
  8 15  1  0  0  0  0
  9 17  1  6  0  0  0
  9 22  1  0  0  0  0
  9  8  1  0  0  0  0
 10 11  1  0  0  0  0
 10  9  1  0  0  0  0
 11  7  1  0  0  0  0
 13  2  1  0  0  0  0
 16  8  1  0  0  0  0
 18 10  1  0  0  0  0
 19 10  1  0  0  0  0
 20 11  1  0  0  0  0
 21 11  1  0  0  0  0
 22 27  1  0  0  0  0
 23 24  1  0  0  0  0
 23 22  1  0  0  0  0
 24 25  1  0  0  0  0
 25 26  1  0  0  0  0
 27 26  1  0  0  0  0
M  END
>  <minimizedAffinity>
-4.66231632

>  <minimizedRMSD>
3.27557588

$$$$
