
 OpenBabel03262519583D

 29 32  0  0  1  0  0  0  0  0999 V2000
   36.8390   21.5640   34.0870 C   0  0  0  0  0  0  0  0  0  0  0  0
   35.7460   20.7100   34.1990 C   0  0  0  0  0  0  0  0  0  0  0  0
   35.5140   20.6570   35.5510 N   0  0  0  0  0  0  0  0  0  0  0  0
   36.4050   21.4190   36.1490 C   0  0  0  0  0  0  0  0  0  0  0  0
   37.2440   21.9980   35.2720 N   0  0  0  0  0  0  0  0  0  0  0  0
   35.2100   20.2110   33.4090 H   0  0  0  0  0  0  0  0  0  0  0  0
   36.4590   21.5660   37.2340 H   0  0  0  0  0  0  0  0  0  0  0  0
   37.4720   21.9410   32.8230 C   0  0  0  0  0  0  0  0  0  0  0  0
   38.6200   21.2640   32.3730 C   0  0  0  0  0  0  0  0  0  0  0  0
   39.1790   21.6830   31.1400 C   0  0  0  0  0  0  0  0  0  0  0  0
   38.5780   22.6960   30.4810 N   0  0  0  0  0  0  0  0  0  0  0  0
   37.4760   23.3200   30.9480 C   0  0  0  0  0  0  0  0  0  0  0  0
   36.9050   22.9570   32.1200 N   0  0  0  0  0  0  0  0  0  0  0  0
   39.0510   20.4590   32.9520 H   0  0  0  0  0  0  0  0  0  0  0  0
   40.0530   21.1930   30.7640 H   0  0  0  0  0  0  0  0  0  0  0  0
   36.9870   24.1330   30.4290 H   0  0  0  0  0  0  0  0  0  0  0  0
   38.3230   22.8840   35.6330 C   0  0  1  0  0  0  0  0  0  0  0  0
   38.7540   23.0730   37.0070 C   0  0  0  0  0  0  0  0  0  0  0  0
   39.5580   22.1630   36.1210 C   0  0  2  0  0  0  0  0  0  0  0  0
   38.5460   23.6630   34.8810 H   0  0  0  0  0  0  0  0  0  0  0  0
   38.1570   22.5750   37.7880 H   0  0  0  0  0  0  0  0  0  0  0  0
   39.1490   24.0790   37.2590 H   0  0  0  0  0  0  0  0  0  0  0  0
   39.5110   21.0660   36.2870 H   0  0  0  0  0  0  0  0  0  0  0  0
   40.9070   22.6640   35.7460 C   0  0  0  0  0  3  0  0  0  0  0  0
   41.5760   21.8610   34.6560 C   0  0  0  0  0  2  0  0  0  0  0  0
   42.7830   22.6570   34.2060 C   0  0  0  0  0  2  0  0  0  0  0  0
   43.7010   23.0650   35.3060 C   0  0  0  0  0  2  0  0  0  0  0  0
   43.0000   23.6030   36.5170 C   0  0  0  0  0  2  0  0  0  0  0  0
   41.8810   22.6590   36.9080 C   0  0  0  0  0  2  0  0  0  0  0  0
  1  2  2  0  0  0  0
  1  5  1  0  0  0  0
  2  3  1  0  0  0  0
  3  4  2  0  0  0  0
  4  7  1  0  0  0  0
  5 17  1  0  0  0  0
  5  4  1  0  0  0  0
  6  2  1  0  0  0  0
  8  1  1  0  0  0  0
  9  8  1  0  0  0  0
  9 14  1  0  0  0  0
 10  9  2  0  0  0  0
 11 12  2  0  0  0  0
 11 10  1  0  0  0  0
 12 13  1  0  0  0  0
 13  8  2  0  0  0  0
 15 10  1  0  0  0  0
 16 12  1  0  0  0  0
 17 20  1  6  0  0  0
 17 19  1  0  0  0  0
 17 18  1  0  0  0  0
 18 22  1  0  0  0  0
 18 21  1  0  0  0  0
 19 23  1  1  0  0  0
 19 18  1  0  0  0  0
 24 19  1  0  0  0  0
 24 29  1  0  0  0  0
 25 24  1  0  0  0  0
 26 25  1  0  0  0  0
 26 27  1  0  0  0  0
 27 28  1  0  0  0  0
 28 29  1  0  0  0  0
M  END
>  <minimizedAffinity>
-4.06651974

>  <minimizedRMSD>
6.41920233

$$$$
