
 OpenBabel03262519093D

 34 37  0  0  1  0  0  0  0  0999 V2000
   37.4210   26.2340   32.8120 C   0  0  0  0  0  0  0  0  0  0  0  0
   37.3760   26.0300   33.9040 H   0  0  0  0  0  0  0  0  0  0  0  0
   38.5190   26.2460   32.5770 H   0  0  0  0  0  0  0  0  0  0  0  0
   36.8880   27.6060   32.6300 C   0  0  0  0  0  0  0  0  0  0  0  0
   36.9140   28.4240   31.5150 C   0  0  0  0  0  0  0  0  0  0  0  0
   36.3740   29.6880   31.4870 C   0  0  0  0  0  0  0  0  0  0  0  0
   35.7720   30.1490   32.6540 C   0  0  0  0  0  0  0  0  0  0  0  0
   35.7670   29.3090   33.7340 C   0  0  0  0  0  0  0  0  0  0  0  0
   36.2980   28.0790   33.7470 N   0  0  0  0  0  0  0  0  0  0  0  0
   37.4070   27.9570   30.6720 H   0  0  0  0  0  0  0  0  0  0  0  0
   36.4600   30.2300   30.5510 H   0  0  0  0  0  0  0  0  0  0  0  0
   35.3520   31.1450   32.6150 H   0  0  0  0  0  0  0  0  0  0  0  0
   35.1030   29.8930   34.9330 C   0  0  0  0  0  0  0  0  0  0  0  0
   35.8430   31.1970   35.2230 C   0  0  0  0  0  0  0  0  0  0  0  0
   35.2930   31.8660   36.4630 C   0  0  0  0  0  0  0  0  0  0  0  0
   33.8790   32.3060   36.1440 C   0  0  0  0  0  0  0  0  0  0  0  0
   33.3750   31.7190   34.8570 C   0  0  0  0  0  0  0  0  0  0  0  0
   33.6620   30.2500   34.7140 C   0  0  0  0  0  0  0  0  0  0  0  0
   36.9150   23.7230   32.1790 C   0  0  2  0  0  0  0  0  0  0  0  0
   37.4240   24.4980   31.0170 C   0  0  0  0  0  0  0  0  0  0  0  0
   36.6620   25.1840   32.1110 C   0  0  2  0  0  0  0  0  0  0  0  0
   35.9930   23.1250   32.1920 H   0  0  0  0  0  0  0  0  0  0  0  0
   36.9280   24.3250   30.0220 H   0  0  0  0  0  0  0  0  0  0  0  0
   38.5120   24.6090   30.8960 H   0  0  0  0  0  0  0  0  0  0  0  0
   35.6370   25.5230   31.7760 H   0  0  0  0  0  0  0  0  0  0  0  0
   40.1480   22.7800   33.6450 C   0  0  0  0  0  0  0  0  0  0  0  0
   39.8210   22.2480   34.9130 C   0  0  0  0  0  0  0  0  0  0  0  0
   38.4420   22.2380   35.2290 C   0  0  0  0  0  0  0  0  0  0  0  0
   37.5550   22.7180   34.3330 N   0  0  0  0  0  0  0  0  0  0  0  0
   37.9390   23.2200   33.1180 C   0  0  0  0  0  0  0  0  0  0  0  0
   39.2600   23.2520   32.7700 N   0  0  0  0  0  0  0  0  0  0  0  0
   41.2140   22.7890   33.4000 H   0  0  0  0  0  0  0  0  0  0  0  0
   40.5500   21.8790   35.5910 H   0  0  0  0  0  0  0  0  0  0  0  0
   38.1340   21.8430   36.1860 H   0  0  0  0  0  0  0  0  0  0  0  0
  1  2  1  0  0  0  0
  3  1  1  0  0  0  0
  4  1  1  0  0  0  0
  4  9  1  0  0  0  0
  5  4  2  0  0  0  0
  6  5  1  0  0  0  0
  6  7  2  0  0  0  0
  7  8  1  0  0  0  0
  8  9  2  0  0  0  0
  8 13  1  0  0  0  0
 10  5  1  0  0  0  0
 11  6  1  0  0  0  0
 12  7  1  0  0  0  0
 13 14  1  0  0  0  0
 14 15  1  0  0  0  0
 16 15  1  0  0  0  0
 17 16  1  0  0  0  0
 18 17  1  0  0  0  0
 18 13  1  0  0  0  0
 19 22  1  6  0  0  0
 19 30  1  0  0  0  0
 20 21  1  0  0  0  0
 20 19  1  0  0  0  0
 21 25  1  6  0  0  0
 21 19  1  0  0  0  0
 21  1  1  0  0  0  0
 23 20  1  0  0  0  0
 24 20  1  0  0  0  0
 26 27  1  0  0  0  0
 27 28  2  0  0  0  0
 27 33  1  0  0  0  0
 28 34  1  0  0  0  0
 29 28  1  0  0  0  0
 30 29  2  0  0  0  0
 31 30  1  0  0  0  0
 31 26  2  0  0  0  0
 32 26  1  0  0  0  0
M  END
>  <minimizedAffinity>
-4.70630693

>  <minimizedRMSD>
5.05803299

$$$$
