
 OpenBabel03262519583D

 29 32  0  0  1  0  0  0  0  0999 V2000
   38.0460   23.9360   34.5130 C   0  0  0  0  0  0  0  0  0  0  0  0
   38.1040   25.1960   33.9250 C   0  0  0  0  0  0  0  0  0  0  0  0
   37.6640   24.9740   32.6440 N   0  0  0  0  0  0  0  0  0  0  0  0
   37.3820   23.6940   32.5230 C   0  0  0  0  0  0  0  0  0  0  0  0
   37.6080   23.0190   33.6630 N   0  0  0  0  0  0  0  0  0  0  0  0
   38.4200   26.1230   34.3720 H   0  0  0  0  0  0  0  0  0  0  0  0
   37.0080   23.2320   31.6020 H   0  0  0  0  0  0  0  0  0  0  0  0
   38.4220   23.6480   35.8980 C   0  0  0  0  0  0  0  0  0  0  0  0
   39.6670   23.0580   36.1880 C   0  0  0  0  0  0  0  0  0  0  0  0
   39.9640   22.8080   37.5510 C   0  0  0  0  0  0  0  0  0  0  0  0
   39.0420   23.1500   38.4760 N   0  0  0  0  0  0  0  0  0  0  0  0
   37.8590   23.7140   38.1550 C   0  0  0  0  0  0  0  0  0  0  0  0
   37.5280   23.9730   36.8680 N   0  0  0  0  0  0  0  0  0  0  0  0
   40.3600   22.8090   35.3980 H   0  0  0  0  0  0  0  0  0  0  0  0
   40.9000   22.3610   37.8130 H   0  0  0  0  0  0  0  0  0  0  0  0
   37.1130   23.9910   38.8870 H   0  0  0  0  0  0  0  0  0  0  0  0
   37.3910   21.6020   33.8330 C   0  0  1  0  0  0  0  0  0  0  0  0
   36.1730   21.0600   34.4050 C   0  0  0  0  0  0  0  0  0  0  0  0
   36.3340   21.0400   32.9110 C   0  0  2  0  0  0  0  0  0  0  0  0
   38.3170   20.9980   33.8490 H   0  0  0  0  0  0  0  0  0  0  0  0
   35.4420   21.7860   34.7980 H   0  0  0  0  0  0  0  0  0  0  0  0
   36.2830   20.1160   34.9800 H   0  0  0  0  0  0  0  0  0  0  0  0
   35.7320   21.7380   32.2920 H   0  0  0  0  0  0  0  0  0  0  0  0
   36.5170   19.6940   32.3060 C   0  0  0  0  0  3  0  0  0  0  0  0
   36.5900   19.7040   30.7980 C   0  0  0  0  0  2  0  0  0  0  0  0
   37.0550   18.3280   30.3720 C   0  0  0  0  0  2  0  0  0  0  0  0
   36.2520   17.2040   30.9290 C   0  0  0  0  0  2  0  0  0  0  0  0
   35.9350   17.3460   32.3890 C   0  0  0  0  0  2  0  0  0  0  0  0
   35.3930   18.7360   32.6490 C   0  0  0  0  0  2  0  0  0  0  0  0
  1  8  1  0  0  0  0
  2  6  1  0  0  0  0
  2  1  2  0  0  0  0
  3  2  1  0  0  0  0
  4  3  2  0  0  0  0
  4  5  1  0  0  0  0
  5 17  1  0  0  0  0
  5  1  1  0  0  0  0
  7  4  1  0  0  0  0
  8  9  2  0  0  0  0
  8 13  1  0  0  0  0
  9 10  1  0  0  0  0
 10 15  1  0  0  0  0
 10 11  2  0  0  0  0
 12 11  1  0  0  0  0
 12 16  1  0  0  0  0
 13 12  2  0  0  0  0
 14  9  1  0  0  0  0
 17 20  1  1  0  0  0
 17 18  1  0  0  0  0
 18 21  1  0  0  0  0
 18 22  1  0  0  0  0
 19 23  1  6  0  0  0
 19 17  1  0  0  0  0
 19 18  1  0  0  0  0
 24 29  1  0  0  0  0
 24 19  1  0  0  0  0
 25 24  1  0  0  0  0
 26 25  1  0  0  0  0
 26 27  1  0  0  0  0
 27 28  1  0  0  0  0
 28 29  1  0  0  0  0
M  END
>  <minimizedAffinity>
-4.97144651

>  <minimizedRMSD>
1.40357459

$$$$
