
 OpenBabel03262519153D

 32 35  0  0  0  0  0  0  0  0999 V2000
   39.8690   23.6470   35.8640 C   0  0  0  0  0  0  0  0  0  0  0  0
   40.0980   24.8820   35.2470 C   0  0  0  0  0  0  0  0  0  0  0  0
   41.3890   25.2140   34.8130 C   0  0  0  0  0  0  0  0  0  0  0  0
   42.3450   24.2710   35.0400 N   0  0  0  0  0  0  0  0  0  0  0  0
   42.0800   23.0620   35.6540 C   0  0  0  0  0  0  0  0  0  0  0  0
   40.8480   22.7820   36.0490 N   0  0  0  0  0  0  0  0  0  0  0  0
   38.8510   23.4600   36.1710 H   0  0  0  0  0  0  0  0  0  0  0  0
   41.6450   26.1330   34.3350 H   0  0  0  0  0  0  0  0  0  0  0  0
   39.0860   25.8920   35.0090 C   0  0  0  0  0  0  0  0  0  0  0  0
   38.7750   26.9230   35.8850 C   0  0  0  0  0  0  0  0  0  0  0  0
   37.7980   27.7790   35.4940 C   0  0  0  0  0  0  0  0  0  0  0  0
   37.1790   27.5780   34.2690 C   0  0  0  0  0  0  0  0  0  0  0  0
   38.0310   26.0740   33.6100 S   0  0  0  0  0  0  0  0  0  0  0  0
   39.2740   27.0580   36.8350 H   0  0  0  0  0  0  0  0  0  0  0  0
   37.4140   28.6370   36.0280 H   0  0  0  0  0  0  0  0  0  0  0  0
   36.1560   28.2240   33.5400 C   0  0  0  0  0  0  0  0  0  0  0  0
   35.9320   27.9160   32.3620 O   0  0  0  0  0  0  0  0  0  0  0  0
   35.3500   29.2530   34.1400 N   0  0  0  0  0  0  0  0  0  0  0  0
   35.3950   29.4440   35.1690 H   0  0  0  0  0  0  0  0  0  0  0  0
   34.6870   29.8560   33.6050 H   0  0  0  0  0  0  0  0  0  0  0  0
   43.2410   22.1690   35.8170 C   0  0  0  0  0  0  0  0  0  0  0  0
   44.4310   22.6130   35.3120 C   0  0  0  0  0  0  0  0  0  0  0  0
   45.6030   21.2010   35.7320 S   0  0  0  0  0  0  0  0  0  0  0  0
   44.1600   20.2620   36.5430 C   0  0  0  0  0  0  0  0  0  0  0  0
   43.3210   20.9900   36.3820 N   0  0  0  0  0  0  0  0  0  0  0  0
   44.8680   23.4620   34.7850 H   0  0  0  0  0  0  0  0  0  0  0  0
   44.3680   18.9200   37.1590 C   0  0  0  0  0  0  0  0  0  0  0  0
   45.6110   18.2490   36.6490 C   0  0  0  0  0  0  0  0  0  0  0  0
   45.4740   17.6930   35.2570 C   0  0  0  0  0  0  0  0  0  0  0  0
   44.2160   16.9280   35.0120 C   0  0  0  0  0  0  0  0  0  0  0  0
   42.9750   17.5260   35.5980 C   0  0  0  0  0  0  0  0  0  0  0  0
   43.1580   18.0350   36.9960 C   0  0  0  0  0  0  0  0  0  0  0  0
  1  6  1  0  0  0  0
  1  7  1  0  0  0  0
  2  1  2  0  0  0  0
  3  4  2  0  0  0  0
  3  2  1  0  0  0  0
  4  5  1  0  0  0  0
  5 21  1  0  0  0  0
  5  6  2  0  0  0  0
  8  3  1  0  0  0  0
  9  2  1  0  0  0  0
  9 10  2  0  0  0  0
 10 14  1  0  0  0  0
 11 10  1  0  0  0  0
 11 15  1  0  0  0  0
 12 11  2  0  0  0  0
 13 12  1  0  0  0  0
 13  9  1  0  0  0  0
 16 18  1  0  0  0  0
 16 12  1  0  0  0  0
 17 16  2  0  0  0  0
 18 19  1  0  0  0  0
 20 18  1  0  0  0  0
 21 25  1  0  0  0  0
 22 23  1  0  0  0  0
 22 21  2  0  0  0  0
 23 24  1  0  0  0  0
 24 27  1  0  0  0  0
 25 24  2  0  0  0  0
 26 22  1  0  0  0  0
 28 27  1  0  0  0  0
 29 28  1  0  0  0  0
 30 29  1  0  0  0  0
 30 31  1  0  0  0  0
 31 32  1  0  0  0  0
 32 27  1  0  0  0  0
M  END
>  <minimizedAffinity>
-4.29269505

>  <minimizedRMSD>
1.53186119

$$$$
