
     RDKit          3D

 40 43  0  0  0  0  0  0  0  0999 V2000
   38.0283   23.4696   34.6205 C   0  0  0  0  0  0  0  0  0  0  0  0
   38.2626   24.5690   33.7999 C   0  0  0  0  0  0  0  0  0  0  0  0
   37.7530   24.1804   32.5862 N   0  0  0  0  0  0  0  0  0  0  0  0
   37.2721   22.9623   32.7153 C   0  0  0  0  0  0  0  0  0  0  0  0
   37.4253   22.4886   33.9644 N   0  0  0  0  0  0  0  0  0  0  0  0
   38.3981   23.3954   36.0343 C   0  0  0  0  0  0  0  0  0  0  0  0
   39.6036   22.7819   36.4212 C   0  0  0  0  0  0  0  0  0  0  0  0
   39.8975   22.7460   37.8067 C   0  0  0  0  0  0  0  0  0  0  0  0
   39.0086   23.2987   38.6604 N   0  0  0  0  0  0  0  0  0  0  0  0
   37.8628   23.8779   38.2474 C   0  0  0  0  0  0  0  0  0  0  0  0
   37.5368   23.9374   36.9340 N   0  0  0  0  0  0  0  0  0  0  0  0
   36.9956   21.1839   34.4038 C   0  0  1  0  0  0  0  0  0  0  0  0
   35.8280   20.9862   35.2432 C   0  0  0  0  0  0  0  0  0  0  0  0
   35.7025   20.7277   33.7666 C   0  0  2  0  0  0  0  0  0  0  0  0
   38.7327   25.5020   34.0595 H   0  0  0  0  0  0  0  0  0  0  0  0
   36.8009   22.3975   31.9006 H   0  0  0  0  0  0  0  0  0  0  0  0
   40.2715   22.3583   35.6848 H   0  0  0  0  0  0  0  0  0  0  0  0
   40.8054   22.2878   38.1415 H   0  0  0  0  0  0  0  0  0  0  0  0
   37.1441   24.3233   38.9207 H   0  0  0  0  0  0  0  0  0  0  0  0
   37.7864   20.4113   34.3801 H   0  0  0  0  0  0  0  0  0  0  0  0
   35.3228   21.8926   35.6143 H   0  0  0  0  0  0  0  0  0  0  0  0
   35.8728   20.1283   35.9459 H   0  0  0  0  0  0  0  0  0  0  0  0
   35.1313   21.4426   33.1395 H   0  0  0  0  0  0  0  0  0  0  0  0
   35.5289   19.3032   33.3803 C   0  0  0  0  0  0  0  0  0  0  0  0
   36.2851   18.9103   32.1342 C   0  0  0  0  0  0  0  0  0  0  0  0
   36.2342   17.3996   32.0480 C   0  0  0  0  0  0  0  0  0  0  0  0
   34.8637   16.8218   32.1298 C   0  0  0  0  0  0  0  0  0  0  0  0
   34.0085   17.4284   33.2024 C   0  0  0  0  0  0  0  0  0  0  0  0
   34.0830   18.9385   33.1071 C   0  0  0  0  0  0  0  0  0  0  0  0
   35.8448   18.6532   34.2191 H   0  0  0  0  0  0  0  0  0  0  0  0
   35.8286   19.3503   31.2420 H   0  0  0  0  0  0  0  0  0  0  0  0
   37.3375   19.2085   32.1597 H   0  0  0  0  0  0  0  0  0  0  0  0
   36.9275   16.9184   32.7699 H   0  0  0  0  0  0  0  0  0  0  0  0
   36.6470   17.1466   31.0290 H   0  0  0  0  0  0  0  0  0  0  0  0
   34.3016   16.8593   31.1716 H   0  0  0  0  0  0  0  0  0  0  0  0
   34.9796   15.7385   32.3729 H   0  0  0  0  0  0  0  0  0  0  0  0
   34.3753   17.1709   34.2271 H   0  0  0  0  0  0  0  0  0  0  0  0
   32.9578   17.1450   33.0340 H   0  0  0  0  0  0  0  0  0  0  0  0
   33.4057   19.4243   33.8360 H   0  0  0  0  0  0  0  0  0  0  0  0
   33.8759   19.2289   32.0680 H   0  0  0  0  0  0  0  0  0  0  0  0
  1  6  1  0
  2  1  2  0
  3  4  2  0
  3  2  1  0
  4  5  1  0
  5 12  1  0
  5  1  1  0
  6  7  2  0
  6 11  1  0
  7  8  1  0
  8  9  2  0
 10  9  1  0
 11 10  2  0
 12 13  1  0
 14 12  1  0
 14 13  1  0
  2 15  1  0
  4 16  1  0
  7 17  1  0
  8 18  1  0
 10 19  1  0
 12 20  1  1
 13 21  1  0
 13 22  1  0
 14 23  1  6
 24 25  1  0
 25 26  1  0
 26 27  1  0
 27 28  1  0
 28 29  1  0
 29 24  1  0
 24 30  1  0
 25 31  1  0
 25 32  1  0
 26 33  1  0
 26 34  1  0
 27 35  1  0
 27 36  1  0
 28 37  1  0
 28 38  1  0
 29 39  1  0
 29 40  1  0
 14 24  1  0
M  ISO  8  15  14  16  14  17  14  18  14  19  14  20  13  21  13  22  13
M  ISO  1  23  13
M  END
>  <DihAtoms>  (1) 
11,13,23,24

>  <DihDeg>  (1) 
-60.064691880971466

$$$$
