
 OpenBabel03262519583D

 29 32  0  0  1  0  0  0  0  0999 V2000
   38.1750   24.3580   34.8280 C   0  0  0  0  0  0  0  0  0  0  0  0
   38.1620   25.6760   34.3830 C   0  0  0  0  0  0  0  0  0  0  0  0
   37.8220   25.5650   33.0570 N   0  0  0  0  0  0  0  0  0  0  0  0
   37.6580   24.2890   32.7820 C   0  0  0  0  0  0  0  0  0  0  0  0
   37.8690   23.5100   33.8570 N   0  0  0  0  0  0  0  0  0  0  0  0
   38.3700   26.5690   34.9470 H   0  0  0  0  0  0  0  0  0  0  0  0
   37.3820   23.9040   31.7930 H   0  0  0  0  0  0  0  0  0  0  0  0
   38.4880   23.9480   36.1980 C   0  0  0  0  0  0  0  0  0  0  0  0
   39.6850   23.2630   36.4780 C   0  0  0  0  0  0  0  0  0  0  0  0
   39.9220   22.8960   37.8260 C   0  0  0  0  0  0  0  0  0  0  0  0
   38.9920   23.2270   38.7480 N   0  0  0  0  0  0  0  0  0  0  0  0
   37.8570   23.8850   38.4370 C   0  0  0  0  0  0  0  0  0  0  0  0
   37.5840   24.2560   37.1640 N   0  0  0  0  0  0  0  0  0  0  0  0
   40.3880   23.0290   35.6910 H   0  0  0  0  0  0  0  0  0  0  0  0
   40.8200   22.3740   38.0800 H   0  0  0  0  0  0  0  0  0  0  0  0
   37.1050   24.1540   39.1670 H   0  0  0  0  0  0  0  0  0  0  0  0
   37.7630   22.0710   33.8600 C   0  0  1  0  0  0  0  0  0  0  0  0
   36.5920   21.3740   34.3590 C   0  0  0  0  0  0  0  0  0  0  0  0
   36.7490   21.5400   32.8730 C   0  0  2  0  0  0  0  0  0  0  0  0
   38.7320   21.5420   33.8120 H   0  0  0  0  0  0  0  0  0  0  0  0
   35.8080   21.9910   34.8280 H   0  0  0  0  0  0  0  0  0  0  0  0
   36.7760   20.3810   34.8210 H   0  0  0  0  0  0  0  0  0  0  0  0
   36.0930   22.2570   32.3360 H   0  0  0  0  0  0  0  0  0  0  0  0
   37.0330   20.2910   32.1170 C   0  0  0  0  0  3  0  0  0  0  0  0
   38.5050   20.0040   31.9430 C   0  0  0  0  0  2  0  0  0  0  0  0
   38.6160   18.5870   31.4200 C   0  0  0  0  0  2  0  0  0  0  0  0
   37.7990   18.3100   30.2060 C   0  0  0  0  0  2  0  0  0  0  0  0
   36.4040   18.8580   30.2720 C   0  0  0  0  0  2  0  0  0  0  0  0
   36.4550   20.3050   30.7160 C   0  0  0  0  0  2  0  0  0  0  0  0
  1  8  1  0  0  0  0
  2  1  2  0  0  0  0
  2  6  1  0  0  0  0
  3  2  1  0  0  0  0
  4  3  2  0  0  0  0
  4  5  1  0  0  0  0
  5 17  1  0  0  0  0
  5  1  1  0  0  0  0
  7  4  1  0  0  0  0
  8  9  2  0  0  0  0
  8 13  1  0  0  0  0
  9 10  1  0  0  0  0
 10 15  1  0  0  0  0
 10 11  2  0  0  0  0
 12 11  1  0  0  0  0
 12 16  1  0  0  0  0
 13 12  2  0  0  0  0
 14  9  1  0  0  0  0
 17 20  1  1  0  0  0
 17 18  1  0  0  0  0
 18 22  1  0  0  0  0
 18 21  1  0  0  0  0
 19 23  1  6  0  0  0
 19 17  1  0  0  0  0
 19 18  1  0  0  0  0
 24 19  1  0  0  0  0
 25 24  1  0  0  0  0
 26 25  1  0  0  0  0
 27 28  1  0  0  0  0
 27 26  1  0  0  0  0
 28 29  1  0  0  0  0
 29 24  1  0  0  0  0
M  END
>  <minimizedAffinity>
-4.6555109

>  <minimizedRMSD>
1.79231548

$$$$
