
 OpenBabel03262518453D

 35 39  0  0  1  0  0  0  0  0999 V2000
   37.4410   25.7830   32.0350 C   0  0  0  0  0  0  0  0  0  0  0  0
   36.6780   26.7480   32.7290 C   0  0  0  0  0  0  0  0  0  0  0  0
   37.1610   27.2540   33.9250 C   0  0  0  0  0  0  0  0  0  0  0  0
   38.3670   26.7860   34.3720 N   0  0  0  0  0  0  0  0  0  0  0  0
   39.0580   25.8660   33.6750 C   0  0  0  0  0  0  0  0  0  0  0  0
   38.6180   25.3640   32.5270 N   0  0  0  0  0  0  0  0  0  0  0  0
   40.3050   25.4600   34.2530 N   0  0  0  0  0  0  0  0  0  0  0  0
   41.3070   26.2470   33.9660 N   0  0  0  0  0  0  0  0  0  0  0  0
   42.4270   25.7810   34.5540 C   0  0  0  0  0  0  0  0  0  0  0  0
   42.0970   24.6570   35.2320 C   0  0  0  0  0  0  0  0  0  0  0  0
   40.7490   24.4580   35.0370 C   0  0  0  0  0  0  0  0  0  0  0  0
   35.7340   27.0960   32.3520 H   0  0  0  0  0  0  0  0  0  0  0  0
   36.6190   27.9980   34.5020 H   0  0  0  0  0  0  0  0  0  0  0  0
   43.4310   26.1680   34.5390 H   0  0  0  0  0  0  0  0  0  0  0  0
   42.6450   23.9370   35.8510 H   0  0  0  0  0  0  0  0  0  0  0  0
   39.7610   23.4760   35.4580 C   0  0  0  0  0  0  0  0  0  0  0  0
   39.7700   22.5410   36.4080 N   0  0  0  0  0  0  0  0  0  0  0  0
   38.6480   21.8870   36.4210 O   0  0  0  0  0  0  0  0  0  0  0  0
   37.9060   22.4260   35.4440 C   0  0  0  0  0  0  0  0  0  0  0  0
   38.5540   23.4170   34.8180 N   0  0  0  0  0  0  0  0  0  0  0  0
   36.5040   21.9950   35.0710 C   0  0  2  0  0  0  0  0  0  0  0  0
   35.8610   20.8800   35.8380 C   0  0  0  0  0  0  0  0  0  0  0  0
   36.3060   20.6840   34.4130 C   0  0  1  0  0  0  0  0  0  0  0  0
   35.8450   22.8670   35.0030 H   0  0  0  0  0  0  0  0  0  0  0  0
   34.7820   20.8920   36.0160 H   0  0  0  0  0  0  0  0  0  0  0  0
   36.4470   20.4750   36.6730 H   0  0  0  0  0  0  0  0  0  0  0  0
   37.2330   20.0750   34.3230 H   0  0  0  0  0  0  0  0  0  0  0  0
   35.3130   20.4610   33.3260 C   0  0  0  0  0  0  0  0  0  0  0  0
   35.2410   21.5800   32.3280 C   0  0  0  0  0  0  0  0  0  0  0  0
   35.5640   21.0000   30.9840 C   0  0  0  0  0  0  0  0  0  0  0  0
   36.0250   19.5780   31.1880 C   0  0  0  0  0  0  0  0  0  0  0  0
   35.4380   19.2150   32.5380 C   0  0  0  0  0  0  0  0  0  0  0  0
   36.9500   25.2590   30.8050 N   0  0  0  0  0  0  0  0  0  0  0  0
   37.4850   25.5120   29.9520 H   0  0  0  0  0  0  0  0  0  0  0  0
   36.1020   24.6950   31.0280 H   0  0  0  0  0  0  0  0  0  0  0  0
  1  6  2  0  0  0  0
  1  2  1  0  0  0  0
  2  3  2  0  0  0  0
  3  4  1  0  0  0  0
  3 13  1  0  0  0  0
  5  7  1  0  0  0  0
  5  4  2  0  0  0  0
  6  5  1  0  0  0  0
  7 11  1  0  0  0  0
  8  7  1  0  0  0  0
  8  9  2  0  0  0  0
  9 10  1  0  0  0  0
 10 15  1  0  0  0  0
 11 10  2  0  0  0  0
 11 16  1  0  0  0  0
 12  2  1  0  0  0  0
 14  9  1  0  0  0  0
 16 17  2  0  0  0  0
 17 18  1  0  0  0  0
 19 18  1  0  0  0  0
 20 19  2  0  0  0  0
 20 16  1  0  0  0  0
 21 24  1  6  0  0  0
 21 19  1  0  0  0  0
 21 22  1  0  0  0  0
 22 25  1  0  0  0  0
 22 26  1  0  0  0  0
 23 27  1  6  0  0  0
 23 21  1  0  0  0  0
 23 22  1  0  0  0  0
 28 23  1  0  0  0  0
 29 28  1  0  0  0  0
 30 31  1  0  0  0  0
 30 29  1  0  0  0  0
 31 32  1  0  0  0  0
 32 28  1  0  0  0  0
 33 35  1  0  0  0  0
 33  1  1  0  0  0  0
 34 33  1  0  0  0  0
M  END
>  <minimizedAffinity>
-5.37374687

>  <minimizedRMSD>
3.93330908

$$$$
