
 OpenBabel03262519573D

 28 31  0  0  1  0  0  0  0  0999 V2000
   38.1670   24.2300   34.7800 C   0  0  0  0  0  0  0  0  0  0  0  0
   38.1740   25.5170   34.2780 C   0  0  0  0  0  0  0  0  0  0  0  0
   37.8240   25.3550   32.9630 N   0  0  0  0  0  0  0  0  0  0  0  0
   37.6350   24.0610   32.7520 C   0  0  0  0  0  0  0  0  0  0  0  0
   37.8400   23.3220   33.8660 N   0  0  0  0  0  0  0  0  0  0  0  0
   38.4130   26.4200   34.8460 H   0  0  0  0  0  0  0  0  0  0  0  0
   37.3480   23.7270   31.7570 H   0  0  0  0  0  0  0  0  0  0  0  0
   38.4810   23.8760   36.1610 C   0  0  0  0  0  0  0  0  0  0  0  0
   39.6470   23.1990   36.4870 C   0  0  0  0  0  0  0  0  0  0  0  0
   39.9000   22.8830   37.8360 C   0  0  0  0  0  0  0  0  0  0  0  0
   38.9870   23.2560   38.7460 N   0  0  0  0  0  0  0  0  0  0  0  0
   37.8410   23.9220   38.4160 C   0  0  0  0  0  0  0  0  0  0  0  0
   37.5910   24.2290   37.1330 N   0  0  0  0  0  0  0  0  0  0  0  0
   40.3580   22.9170   35.7170 H   0  0  0  0  0  0  0  0  0  0  0  0
   40.8040   22.3570   38.1000 H   0  0  0  0  0  0  0  0  0  0  0  0
   37.1540   24.1880   39.2210 H   0  0  0  0  0  0  0  0  0  0  0  0
   37.7050   21.9000   33.9150 C   0  0  1  0  0  0  0  0  0  0  0  0
   36.4500   21.2370   34.2930 C   0  0  0  0  0  0  0  0  0  0  0  0
   36.7810   21.3460   32.8310 C   0  0  2  0  0  0  0  0  0  0  0  0
   38.6600   21.3650   33.9850 H   0  0  0  0  0  0  0  0  0  0  0  0
   36.5450   20.3190   34.8670 H   0  0  0  0  0  0  0  0  0  0  0  0
   35.5770   21.8480   34.5990 H   0  0  0  0  0  0  0  0  0  0  0  0
   36.2080   22.0700   32.2040 H   0  0  0  0  0  0  0  0  0  0  0  0
   37.1050   20.0770   32.1470 C   0  0  0  0  0  3  0  0  0  0  0  0
   37.1900   20.3520   30.6370 C   0  0  0  0  0  2  0  0  0  0  0  0
   36.4890   19.2210   29.9510 C   0  0  0  0  0  2  0  0  0  0  0  0
   36.4100   18.1450   30.9880 C   0  0  0  0  0  2  0  0  0  0  0  0
   36.0670   18.9860   32.2340 C   0  0  0  0  0  2  0  0  0  0  0  0
  1  8  1  0  0  0  0
  2  1  2  0  0  0  0
  2  6  1  0  0  0  0
  3  2  1  0  0  0  0
  4  3  2  0  0  0  0
  4  5  1  0  0  0  0
  5 17  1  0  0  0  0
  5  1  1  0  0  0  0
  7  4  1  0  0  0  0
  8  9  2  0  0  0  0
  8 13  1  0  0  0  0
  9 10  1  0  0  0  0
 10 15  1  0  0  0  0
 10 11  2  0  0  0  0
 12 11  1  0  0  0  0
 12 16  1  0  0  0  0
 13 12  2  0  0  0  0
 14  9  1  0  0  0  0
 17 20  1  1  0  0  0
 17 18  1  0  0  0  0
 18 22  1  0  0  0  0
 18 21  1  0  0  0  0
 19 23  1  6  0  0  0
 19 17  1  0  0  0  0
 19 18  1  0  0  0  0
 24 28  1  0  0  0  0
 24 19  1  0  0  0  0
 25 24  1  0  0  0  0
 26 25  1  0  0  0  0
 26 27  1  0  0  0  0
 27 28  1  0  0  0  0
M  END
>  <minimizedAffinity>
-4.73570681

>  <minimizedRMSD>
1.31338811

$$$$
