
 OpenBabel03262519373D

 29 31  0  0  1  0  0  0  0  0999 V2000
   37.9290   24.7950   33.8860 N   0  0  0  0  0  0  0  0  0  0  0  0
   37.7580   23.5630   33.1400 C   0  0  0  0  0  0  0  0  0  0  0  0
   36.8910   23.9210   31.9640 C   0  0  0  0  0  0  0  0  0  0  0  0
   36.5570   25.3970   32.2040 C   0  0  0  0  0  0  0  0  0  0  0  0
   37.9020   25.7740   32.8880 C   0  0  1  0  0  0  0  0  0  0  0  0
   37.3520   22.7540   33.7750 H   0  0  0  0  0  0  0  0  0  0  0  0
   38.7470   23.2470   32.7370 H   0  0  0  0  0  0  0  0  0  0  0  0
   35.9560   23.3020   32.0320 H   0  0  0  0  0  0  0  0  0  0  0  0
   37.4040   23.8350   30.9870 H   0  0  0  0  0  0  0  0  0  0  0  0
   35.7260   25.4350   32.9100 H   0  0  0  0  0  0  0  0  0  0  0  0
   36.4220   25.9080   31.2550 H   0  0  0  0  0  0  0  0  0  0  0  0
   38.6800   25.6540   32.0950 H   0  0  0  0  0  0  0  0  0  0  0  0
   37.7450   27.2080   33.1890 C   0  0  0  0  0  0  0  0  0  0  0  0
   37.0710   28.0820   32.2070 C   0  0  0  0  0  0  0  0  0  0  0  0
   36.1820   29.0410   32.9870 C   0  0  0  0  0  0  0  0  0  0  0  0
   36.1640   28.6100   34.4100 C   0  0  0  0  0  0  0  0  0  0  0  0
   36.7720   27.2520   34.3840 C   0  0  0  0  0  0  0  0  0  0  0  0
   39.1830   24.7970   34.5820 C   0  0  0  0  0  0  0  0  0  0  0  0
   39.7970   25.6870   34.4800 H   0  0  0  0  0  0  0  0  0  0  0  0
   39.7950   23.9800   34.0760 H   0  0  0  0  0  0  0  0  0  0  0  0
   37.9670   24.2140   38.1060 C   0  0  0  0  0  0  0  0  0  0  0  0
   38.0400   24.7560   36.8200 C   0  0  0  0  0  0  0  0  0  0  0  0
   39.0500   24.2780   35.9740 C   0  0  0  0  0  0  0  0  0  0  0  0
   39.9100   23.3110   36.4420 N   0  0  0  0  0  0  0  0  0  0  0  0
   39.8010   22.8180   37.6890 C   0  0  0  0  0  0  0  0  0  0  0  0
   38.8340   23.2690   38.5160 N   0  0  0  0  0  0  0  0  0  0  0  0
   37.1610   24.6280   38.7170 H   0  0  0  0  0  0  0  0  0  0  0  0
   37.4050   25.5060   36.3990 H   0  0  0  0  0  0  0  0  0  0  0  0
   40.4630   22.0580   38.0810 H   0  0  0  0  0  0  0  0  0  0  0  0
  1 18  1  0  0  0  0
  2  6  1  0  0  0  0
  2  1  1  0  0  0  0
  3  8  1  0  0  0  0
  3  4  1  0  0  0  0
  3  2  1  0  0  0  0
  4  5  1  0  0  0  0
  4 10  1  0  0  0  0
  5 12  1  6  0  0  0
  5 13  1  0  0  0  0
  5  1  1  0  0  0  0
  7  2  1  0  0  0  0
  9  3  1  0  0  0  0
 11  4  1  0  0  0  0
 13 17  1  0  0  0  0
 14 15  1  0  0  0  0
 14 13  1  0  0  0  0
 15 16  1  0  0  0  0
 17 16  1  0  0  0  0
 18 23  1  0  0  0  0
 19 18  1  0  0  0  0
 20 18  1  0  0  0  0
 21 26  1  0  0  0  0
 21 27  1  0  0  0  0
 22 21  2  0  0  0  0
 23 24  2  0  0  0  0
 23 22  1  0  0  0  0
 24 25  1  0  0  0  0
 25 29  1  0  0  0  0
 25 26  2  0  0  0  0
 28 22  1  0  0  0  0
M  END
>  <minimizedAffinity>
-4.70023537

>  <minimizedRMSD>
2.06816959

$$$$
