
 OpenBabel03262519583D

 28 31  0  0  1  0  0  0  0  0999 V2000
   38.1680   24.2460   32.8320 C   0  0  0  0  0  0  0  0  0  0  0  0
   38.9220   25.2150   32.1990 C   0  0  0  0  0  0  0  0  0  0  0  0
   38.4130   25.2440   30.9270 N   0  0  0  0  0  0  0  0  0  0  0  0
   37.4410   24.3470   30.8620 C   0  0  0  0  0  0  0  0  0  0  0  0
   37.2560   23.7010   32.0350 N   0  0  0  0  0  0  0  0  0  0  0  0
   39.7270   25.7960   32.6570 H   0  0  0  0  0  0  0  0  0  0  0  0
   36.9060   24.2180   29.9220 H   0  0  0  0  0  0  0  0  0  0  0  0
   38.3350   23.8430   34.2260 C   0  0  0  0  0  0  0  0  0  0  0  0
   38.8720   22.6090   34.5620 C   0  0  0  0  0  0  0  0  0  0  0  0
   39.0100   22.2720   35.9240 C   0  0  0  0  0  0  0  0  0  0  0  0
   38.6100   23.1740   36.8330 N   0  0  0  0  0  0  0  0  0  0  0  0
   38.0820   24.3870   36.4920 C   0  0  0  0  0  0  0  0  0  0  0  0
   37.9460   24.7180   35.1980 N   0  0  0  0  0  0  0  0  0  0  0  0
   39.1820   21.9110   33.7920 H   0  0  0  0  0  0  0  0  0  0  0  0
   39.4260   21.3150   36.1950 H   0  0  0  0  0  0  0  0  0  0  0  0
   37.7830   25.0600   37.2980 H   0  0  0  0  0  0  0  0  0  0  0  0
   36.2710   22.6840   32.2390 C   0  0  1  0  0  0  0  0  0  0  0  0
   35.5260   22.0710   31.1310 C   0  0  0  0  0  0  0  0  0  0  0  0
   36.6960   21.3180   31.6990 C   0  0  2  0  0  0  0  0  0  0  0  0
   35.8810   22.6420   33.2630 H   0  0  0  0  0  0  0  0  0  0  0  0
   34.4880   21.8160   31.3320 H   0  0  0  0  0  0  0  0  0  0  0  0
   35.6880   22.4320   30.0950 H   0  0  0  0  0  0  0  0  0  0  0  0
   37.6350   21.2560   31.1000 H   0  0  0  0  0  0  0  0  0  0  0  0
   36.3700   20.0840   32.4420 C   0  0  0  0  0  3  0  0  0  0  0  0
   37.3060   18.9660   31.9540 C   0  0  0  0  0  2  0  0  0  0  0  0
   36.4650   17.7360   31.7990 C   0  0  0  0  0  2  0  0  0  0  0  0
   35.2260   18.0270   32.5860 C   0  0  0  0  0  2  0  0  0  0  0  0
   34.9970   19.5040   32.2060 C   0  0  0  0  0  2  0  0  0  0  0  0
  1  8  1  0  0  0  0
  2  6  1  0  0  0  0
  2  1  2  0  0  0  0
  3  2  1  0  0  0  0
  4  3  2  0  0  0  0
  4  5  1  0  0  0  0
  5 17  1  0  0  0  0
  5  1  1  0  0  0  0
  7  4  1  0  0  0  0
  8  9  2  0  0  0  0
  8 13  1  0  0  0  0
  9 10  1  0  0  0  0
 10 15  1  0  0  0  0
 10 11  2  0  0  0  0
 12 11  1  0  0  0  0
 12 16  1  0  0  0  0
 13 12  2  0  0  0  0
 14  9  1  0  0  0  0
 17 20  1  1  0  0  0
 18 21  1  0  0  0  0
 18 19  1  0  0  0  0
 18 17  1  0  0  0  0
 19 23  1  6  0  0  0
 19 17  1  0  0  0  0
 19 24  1  0  0  0  0
 22 18  1  0  0  0  0
 25 24  1  0  0  0  0
 26 25  1  0  0  0  0
 26 27  1  0  0  0  0
 28 24  1  0  0  0  0
 28 27  1  0  0  0  0
M  END
>  <minimizedAffinity>
-4.55901909

>  <minimizedRMSD>
2.38162923

$$$$
