
 OpenBabel03262519493D

 37 40  0  0  1  0  0  0  0  0999 V2000
   37.4130   25.8350   32.9450 N   0  0  0  0  0  0  0  0  0  0  0  0
   36.9490   24.7620   32.2990 C   0  0  0  0  0  0  0  0  0  0  0  0
   35.9020   25.0180   31.4430 C   0  0  0  0  0  0  0  0  0  0  0  0
   35.7050   26.3230   31.5620 N   0  0  0  0  0  0  0  0  0  0  0  0
   36.6080   26.8250   32.4650 C   0  0  0  0  0  0  0  0  0  0  0  0
   37.3830   23.7600   32.4540 H   0  0  0  0  0  0  0  0  0  0  0  0
   35.3840   24.3090   30.8310 H   0  0  0  0  0  0  0  0  0  0  0  0
   36.6240   28.3160   32.7730 C   0  0  1  0  0  0  0  0  0  0  0  0
   35.7760   29.1460   31.8780 C   0  0  0  0  0  0  0  0  0  0  0  0
   35.3680   28.9060   33.3180 C   0  0  2  0  0  0  0  0  0  0  0  0
   37.5360   28.7020   33.2560 H   0  0  0  0  0  0  0  0  0  0  0  0
   36.1870   30.0730   31.5160 H   0  0  0  0  0  0  0  0  0  0  0  0
   35.1530   28.6040   31.1090 H   0  0  0  0  0  0  0  0  0  0  0  0
   34.4750   28.2150   33.4580 H   0  0  0  0  0  0  0  0  0  0  0  0
   35.2160   30.1760   34.0480 C   0  0  0  0  0  3  0  0  0  0  0  0
   33.9460   30.4980   34.7320 C   0  0  0  0  0  2  0  0  0  0  0  0
   34.3080   31.7740   35.5110 C   0  0  0  0  0  2  0  0  0  0  0  0
   35.6810   31.4670   36.0260 C   0  0  0  0  0  2  0  0  0  0  0  0
   36.2000   30.3020   35.2420 C   0  0  0  0  0  2  0  0  0  0  0  0
   38.4200   26.0660   33.8930 C   0  0  0  0  0  0  0  0  0  0  0  0
   38.9520   27.0190   33.6860 H   0  0  0  0  0  0  0  0  0  0  0  0
   39.2040   25.2740   33.7810 H   0  0  0  0  0  0  0  0  0  0  0  0
   37.9420   26.0220   35.2980 C   0  0  1  0  0  0  0  0  0  0  0  0
   36.8320   25.9610   35.3190 H   0  0  0  0  0  0  0  0  0  0  0  0
   38.5500   23.4520   38.0080 C   0  0  0  0  0  0  0  0  0  0  0  0
   37.9400   24.5420   37.3560 C   0  0  0  0  0  0  0  0  0  0  0  0
   38.5120   24.9030   36.0810 C   0  0  0  0  0  0  0  0  0  0  0  0
   39.5900   24.1880   35.5790 N   0  0  0  0  0  0  0  0  0  0  0  0
   40.1180   23.1680   36.2480 C   0  0  0  0  0  0  0  0  0  0  0  0
   39.5900   22.7970   37.4770 N   0  0  0  0  0  0  0  0  0  0  0  0
   38.1090   23.2010   38.9540 H   0  0  0  0  0  0  0  0  0  0  0  0
   37.1130   25.1100   37.7150 H   0  0  0  0  0  0  0  0  0  0  0  0
   40.9460   22.6120   35.8700 H   0  0  0  0  0  0  0  0  0  0  0  0
   38.2540   27.3490   35.9800 C   0  0  0  0  0  0  0  0  0  0  0  0
   38.6400   28.0500   35.2530 H   0  0  0  0  0  0  0  0  0  0  0  0
   39.1240   27.1310   36.6730 H   0  0  0  0  0  0  0  0  0  0  0  0
   37.4460   27.6720   36.6370 H   0  0  0  0  0  0  0  0  0  0  0  0
  1 20  1  0  0  0  0
  2  6  1  0  0  0  0
  2  1  1  0  0  0  0
  3  4  1  0  0  0  0
  3  2  2  0  0  0  0
  4  5  2  0  0  0  0
  5  8  1  0  0  0  0
  5  1  1  0  0  0  0
  7  3  1  0  0  0  0
  8 11  1  1  0  0  0
  8 10  1  0  0  0  0
  9  8  1  0  0  0  0
  9 10  1  0  0  0  0
 10 14  1  1  0  0  0
 10 15  1  0  0  0  0
 12  9  1  0  0  0  0
 13  9  1  0  0  0  0
 15 16  1  0  0  0  0
 15 19  1  0  0  0  0
 16 17  1  0  0  0  0
 17 18  1  0  0  0  0
 19 18  1  0  0  0  0
 20 23  1  0  0  0  0
 21 20  1  0  0  0  0
 22 20  1  0  0  0  0
 23 24  1  6  0  0  0
 23 34  1  0  0  0  0
 23 27  1  0  0  0  0
 25 31  1  0  0  0  0
 26 32  1  0  0  0  0
 26 25  2  0  0  0  0
 27 26  1  0  0  0  0
 28 27  2  0  0  0  0
 28 29  1  0  0  0  0
 29 30  2  0  0  0  0
 30 25  1  0  0  0  0
 33 29  1  0  0  0  0
 34 37  1  0  0  0  0
 34 36  1  0  0  0  0
 35 34  1  0  0  0  0
M  END
>  <minimizedAffinity>
-5.61413193

>  <minimizedRMSD>
0.988449812

$$$$
