
 OpenBabel03262519493D

 37 40  0  0  1  0  0  0  0  0999 V2000
   37.4120   25.8350   32.9440 N   0  0  0  0  0  0  0  0  0  0  0  0
   36.9480   24.7620   32.2990 C   0  0  0  0  0  0  0  0  0  0  0  0
   35.9010   25.0190   31.4420 C   0  0  0  0  0  0  0  0  0  0  0  0
   35.7040   26.3230   31.5610 N   0  0  0  0  0  0  0  0  0  0  0  0
   36.6080   26.8250   32.4630 C   0  0  0  0  0  0  0  0  0  0  0  0
   37.3810   23.7600   32.4530 H   0  0  0  0  0  0  0  0  0  0  0  0
   35.3830   24.3090   30.8310 H   0  0  0  0  0  0  0  0  0  0  0  0
   36.6240   28.3170   32.7720 C   0  0  1  0  0  0  0  0  0  0  0  0
   35.7750   29.1460   31.8770 C   0  0  0  0  0  0  0  0  0  0  0  0
   35.3680   28.9070   33.3180 C   0  0  2  0  0  0  0  0  0  0  0  0
   37.5370   28.7020   33.2530 H   0  0  0  0  0  0  0  0  0  0  0  0
   36.1850   30.0730   31.5150 H   0  0  0  0  0  0  0  0  0  0  0  0
   35.1500   28.6040   31.1090 H   0  0  0  0  0  0  0  0  0  0  0  0
   34.4750   28.2150   33.4590 H   0  0  0  0  0  0  0  0  0  0  0  0
   35.2170   30.1760   34.0480 C   0  0  0  0  0  0  0  0  0  0  0  0
   33.9460   30.4990   34.7310 C   0  0  0  0  0  0  0  0  0  0  0  0
   34.3100   31.7750   35.5110 C   0  0  0  0  0  0  0  0  0  0  0  0
   35.6820   31.4680   36.0270 C   0  0  0  0  0  0  0  0  0  0  0  0
   36.2000   30.3020   35.2420 C   0  0  0  0  0  0  0  0  0  0  0  0
   38.4190   26.0660   33.8920 C   0  0  0  0  0  0  0  0  0  0  0  0
   38.9510   27.0190   33.6840 H   0  0  0  0  0  0  0  0  0  0  0  0
   39.2030   25.2740   33.7800 H   0  0  0  0  0  0  0  0  0  0  0  0
   37.9410   26.0230   35.2970 C   0  0  1  0  0  0  0  0  0  0  0  0
   36.8310   25.9610   35.3180 H   0  0  0  0  0  0  0  0  0  0  0  0
   38.5490   23.4530   38.0070 C   0  0  0  0  0  0  0  0  0  0  0  0
   37.9400   24.5430   37.3550 C   0  0  0  0  0  0  0  0  0  0  0  0
   38.5110   24.9030   36.0790 C   0  0  0  0  0  0  0  0  0  0  0  0
   39.5890   24.1880   35.5780 N   0  0  0  0  0  0  0  0  0  0  0  0
   40.1170   23.1680   36.2470 C   0  0  0  0  0  0  0  0  0  0  0  0
   39.5900   22.7970   37.4760 N   0  0  0  0  0  0  0  0  0  0  0  0
   38.1090   23.2010   38.9530 H   0  0  0  0  0  0  0  0  0  0  0  0
   37.1130   25.1100   37.7140 H   0  0  0  0  0  0  0  0  0  0  0  0
   40.9450   22.6120   35.8690 H   0  0  0  0  0  0  0  0  0  0  0  0
   38.2540   27.3490   35.9790 C   0  0  0  0  0  0  0  0  0  0  0  0
   38.6400   28.0500   35.2510 H   0  0  0  0  0  0  0  0  0  0  0  0
   39.1240   27.1310   36.6710 H   0  0  0  0  0  0  0  0  0  0  0  0
   37.4460   27.6730   36.6350 H   0  0  0  0  0  0  0  0  0  0  0  0
  1 20  1  0  0  0  0
  2  6  1  0  0  0  0
  2  1  1  0  0  0  0
  3  4  1  0  0  0  0
  3  2  2  0  0  0  0
  4  5  2  0  0  0  0
  5  8  1  0  0  0  0
  5  1  1  0  0  0  0
  7  3  1  0  0  0  0
  8 11  1  1  0  0  0
  8 10  1  0  0  0  0
  9  8  1  0  0  0  0
  9 10  1  0  0  0  0
 10 14  1  1  0  0  0
 10 15  1  0  0  0  0
 12  9  1  0  0  0  0
 13  9  1  0  0  0  0
 15 16  1  0  0  0  0
 15 19  1  0  0  0  0
 16 17  1  0  0  0  0
 17 18  1  0  0  0  0
 19 18  1  0  0  0  0
 20 23  1  0  0  0  0
 21 20  1  0  0  0  0
 22 20  1  0  0  0  0
 23 24  1  6  0  0  0
 23 34  1  0  0  0  0
 23 27  1  0  0  0  0
 25 31  1  0  0  0  0
 26 32  1  0  0  0  0
 26 25  2  0  0  0  0
 27 26  1  0  0  0  0
 28 27  2  0  0  0  0
 28 29  1  0  0  0  0
 29 30  2  0  0  0  0
 30 25  1  0  0  0  0
 33 29  1  0  0  0  0
 34 37  1  0  0  0  0
 34 36  1  0  0  0  0
 35 34  1  0  0  0  0
M  END
>  <minimizedAffinity>
-5.61441422

>  <minimizedRMSD>
0.740425169

$$$$
