REMARK  Name = 
REMARK  5 active torsions:
REMARK  status: ('A' for Active; 'I' for Inactive)
REMARK    1  A    between atoms: N_1  and  C_6
REMARK    2  A    between atoms: C_5  and  O_13
REMARK    3  A    between atoms: C_6  and  C_9
REMARK    4  A    between atoms: O_13  and  C_14
REMARK    5  A    between atoms: C_16  and  C_33
REMARK                            x       y       z     vdW  Elec       q    Type
REMARK                         _______ _______ _______ _____ _____    ______ ____
ROOT
ATOM      1  N   UNL     1      37.637  25.378  34.372  0.00  0.00    +0.000 NA
ATOM      2  C   UNL     1      37.101  25.410  33.026  0.00  0.00    +0.000 C 
ATOM      3  C   UNL     1      36.844  26.848  32.729  0.00  0.00    +0.000 C 
ATOM      4  C   UNL     1      37.304  27.573  33.983  0.00  0.00    +0.000 C 
ATOM      5  C   UNL     1      38.403  26.579  34.454  0.00  0.00    +0.000 C 
ATOM      6  H   UNL     1      36.129  24.881  33.074  0.00  0.00    +0.000 HD
ATOM      7  H   UNL     1      37.757  24.925  32.285  0.00  0.00    +0.000 HD
ATOM      8  H   UNL     1      35.780  27.101  32.605  0.00  0.00    +0.000 HD
ATOM      9  H   UNL     1      37.483  27.210  31.893  0.00  0.00    +0.000 HD
ATOM     10  H   UNL     1      36.539  27.605  34.761  0.00  0.00    +0.000 HD
ATOM     11  H   UNL     1      37.780  28.541  33.769  0.00  0.00    +0.000 HD
ATOM     12  H   UNL     1      38.721  26.921  35.458  0.00  0.00    +0.000 HD
ENDROOT
BRANCH   1  13
ATOM     13  C   UNL     1      38.544  24.280  34.553  0.00  0.00    +0.000 C 
ATOM     14  H   UNL     1      39.547  24.481  34.131  0.00  0.00    +0.000 HD
ATOM     15  H   UNL     1      38.101  23.389  34.050  0.00  0.00    +0.000 HD
BRANCH  13  18
ATOM     16  C   UNL     1      37.879  23.911  38.265  0.00  0.00    +0.000 A 
ATOM     17  C   UNL     1      37.688  24.288  36.943  0.00  0.00    +0.000 A 
ATOM     18  C   UNL     1      38.678  23.913  36.001  0.00  0.00    +0.000 A 
ATOM     19  N   UNL     1      39.753  23.209  36.458  0.00  0.00    +0.000 NA
ATOM     20  C   UNL     1      39.874  22.876  37.759  0.00  0.00    +0.000 A 
ATOM     21  N   UNL     1      38.934  23.232  38.648  0.00  0.00    +0.000 NA
ATOM     22  H   UNL     1      37.095  24.222  38.938  0.00  0.00    +0.000 HD
ATOM     23  H   UNL     1      36.837  24.838  36.616  0.00  0.00    +0.000 HD
ATOM     24  H   UNL     1      40.794  22.311  37.960  0.00  0.00    +0.000 HD
ENDBRANCH  13  18
ENDBRANCH   1  13
BRANCH   5  25
ATOM     25  O   UNL     1      39.488  26.575  33.620  0.00  0.00    +0.000 OA
BRANCH  25  26
ATOM     26  C   UNL     1      40.597  27.168  34.164  0.00  0.00    +0.000 C 
ATOM     27  C   UNL     1      41.706  27.524  33.226  0.00  0.00    +0.000 C 
ATOM     28  C   UNL     1      41.901  26.445  34.242  0.00  0.00    +0.000 C 
ATOM     29  H   UNL     1      40.370  27.748  35.060  0.00  0.00    +0.000 HD
ATOM     30  H   UNL     1      41.644  27.151  32.162  0.00  0.00    +0.000 HD
ATOM     31  H   UNL     1      42.312  28.439  33.380  0.00  0.00    +0.000 HD
ATOM     32  H   UNL     1      41.917  25.389  33.893  0.00  0.00    +0.000 HD
BRANCH  28  33
ATOM     33  C   UNL     1      42.676  26.674  35.512  0.00  0.00    +0.000 C 
ATOM     34  C   UNL     1      44.158  26.607  35.370  0.00  0.00    +0.000 C 
ATOM     35  C   UNL     1      44.528  25.223  35.882  0.00  0.00    +0.000 C 
ATOM     36  C   UNL     1      43.513  24.931  36.936  0.00  0.00    +0.000 C 
ATOM     37  C   UNL     1      42.279  25.682  36.575  0.00  0.00    +0.000 C 
ENDBRANCH  28  33
ENDBRANCH  25  26
ENDBRANCH   5  25
TORSDOF 5
