
     RDKit          3D

 46 49  0  0  0  0  0  0  0  0999 V2000
   37.6369   25.3776   34.3716 N   0  0  0  0  0  0  0  0  0  0  0  0
   37.1013   25.4103   33.0264 C   0  0  0  0  0  0  0  0  0  0  0  0
   36.8445   26.8475   32.7293 C   0  0  0  0  0  0  0  0  0  0  0  0
   37.3043   27.5728   33.9826 C   0  0  0  0  0  0  0  0  0  0  0  0
   38.4025   26.5787   34.4540 C   0  0  2  0  0  0  0  0  0  0  0  0
   38.5442   24.2800   34.5533 C   0  0  0  0  0  0  0  0  0  0  0  0
   37.8788   23.9112   38.2653 C   0  0  0  0  0  0  0  0  0  0  0  0
   37.6875   24.2876   36.9429 C   0  0  0  0  0  0  0  0  0  0  0  0
   38.6780   23.9135   36.0008 C   0  0  0  0  0  0  0  0  0  0  0  0
   39.7530   23.2085   36.4578 N   0  0  0  0  0  0  0  0  0  0  0  0
   39.8740   22.8762   37.7594 C   0  0  0  0  0  0  0  0  0  0  0  0
   38.9337   23.2324   38.6482 N   0  0  0  0  0  0  0  0  0  0  0  0
   39.4879   26.5753   33.6200 O   0  0  0  0  0  0  0  0  0  0  0  0
   40.5967   27.1678   34.1643 C   0  0  2  0  0  0  0  0  0  0  0  0
   41.7060   27.5237   33.2262 C   0  0  0  0  0  0  0  0  0  0  0  0
   41.9007   26.4447   34.2419 C   0  0  1  0  0  0  0  0  0  0  0  0
   36.1289   24.8808   33.0738 H   0  0  0  0  0  0  0  0  0  0  0  0
   37.7570   24.9249   32.2848 H   0  0  0  0  0  0  0  0  0  0  0  0
   35.7802   27.1007   32.6045 H   0  0  0  0  0  0  0  0  0  0  0  0
   37.4834   27.2097   31.8930 H   0  0  0  0  0  0  0  0  0  0  0  0
   36.5389   27.6047   34.7606 H   0  0  0  0  0  0  0  0  0  0  0  0
   37.7798   28.5415   33.7692 H   0  0  0  0  0  0  0  0  0  0  0  0
   38.7210   26.9208   35.4581 H   0  0  0  0  0  0  0  0  0  0  0  0
   39.5473   24.4810   34.1311 H   0  0  0  0  0  0  0  0  0  0  0  0
   38.1006   23.3889   34.0496 H   0  0  0  0  0  0  0  0  0  0  0  0
   37.0950   24.2220   38.9383 H   0  0  0  0  0  0  0  0  0  0  0  0
   36.8371   24.8384   36.6160 H   0  0  0  0  0  0  0  0  0  0  0  0
   40.7936   22.3115   37.9596 H   0  0  0  0  0  0  0  0  0  0  0  0
   40.3695   27.7483   35.0605 H   0  0  0  0  0  0  0  0  0  0  0  0
   41.6442   27.1509   32.1624 H   0  0  0  0  0  0  0  0  0  0  0  0
   42.3115   28.4393   33.3797 H   0  0  0  0  0  0  0  0  0  0  0  0
   41.9170   25.3894   33.8929 H   0  0  0  0  0  0  0  0  0  0  0  0
   42.6764   26.6743   35.5119 C   0  0  0  0  0  0  0  0  0  0  0  0
   44.1577   26.6073   35.3705 C   0  0  0  0  0  0  0  0  0  0  0  0
   44.5276   25.2233   35.8824 C   0  0  0  0  0  0  0  0  0  0  0  0
   43.5133   24.9315   36.9361 C   0  0  0  0  0  0  0  0  0  0  0  0
   42.2786   25.6820   36.5750 C   0  0  0  0  0  0  0  0  0  0  0  0
   42.4585   27.6962   35.9450 H   0  0  0  0  0  0  0  0  0  0  0  0
   44.5665   26.8471   34.3868 H   0  0  0  0  0  0  0  0  0  0  0  0
   44.6804   27.3150   36.0795 H   0  0  0  0  0  0  0  0  0  0  0  0
   44.5016   24.5262   35.0387 H   0  0  0  0  0  0  0  0  0  0  0  0
   45.5688   25.2124   36.2867 H   0  0  0  0  0  0  0  0  0  0  0  0
   43.9377   25.2682   37.9145 H   0  0  0  0  0  0  0  0  0  0  0  0
   43.3482   23.8351   36.9503 H   0  0  0  0  0  0  0  0  0  0  0  0
   41.4442   25.0349   36.2367 H   0  0  0  0  0  0  0  0  0  0  0  0
   41.9105   26.1709   37.5002 H   0  0  0  0  0  0  0  0  0  0  0  0
  1  5  1  0
  1  6  1  0
  2  1  1  0
  3  2  1  0
  3  4  1  0
  4  5  1  0
  6  9  1  0
  7 12  2  0
  8  7  1  0
  9 10  1  0
  9  8  2  0
 10 11  2  0
 11 12  1  0
 13 14  1  0
 13  5  1  0
 14 16  1  0
 15 14  1  0
 15 16  1  0
  2 17  1  0
  2 18  1  0
  3 19  1  0
  3 20  1  0
  4 21  1  0
  4 22  1  0
  5 23  1  1
  6 24  1  0
  6 25  1  0
  7 26  1  0
  8 27  1  0
 11 28  1  0
 14 29  1  1
 15 30  1  0
 15 31  1  0
 16 32  1  6
 33 34  1  0
 34 35  1  0
 35 36  1  0
 36 37  1  0
 37 33  1  0
 33 38  1  0
 34 39  1  0
 34 40  1  0
 35 41  1  0
 35 42  1  0
 36 43  1  0
 36 44  1  0
 37 45  1  0
 37 46  1  0
 16 33  1  0
M  ISO  8  17  13  18  13  19  13  20  13  21  13  22  13  23  13  24   8
M  ISO  8  25   8  26  14  27  14  28  14  29  13  30  13  31  13  32  13
M  END
>  <DihAtoms>  (1) 
13,15,32,33

>  <DihDeg>  (1) 
-59.368764815730835

$$$$
