
 OpenBabel03262519583D

 28 31  0  0  1  0  0  0  0  0999 V2000
   37.9190   24.0160   34.0980 C   0  0  0  0  0  0  0  0  0  0  0  0
   37.9200   25.3220   33.6490 C   0  0  0  0  0  0  0  0  0  0  0  0
   37.3190   25.2450   32.4210 N   0  0  0  0  0  0  0  0  0  0  0  0
   37.0050   23.9770   32.2050 C   0  0  0  0  0  0  0  0  0  0  0  0
   37.3640   23.1750   33.2320 N   0  0  0  0  0  0  0  0  0  0  0  0
   38.3230   26.1820   34.1930 H   0  0  0  0  0  0  0  0  0  0  0  0
   36.5130   23.7080   31.2710 H   0  0  0  0  0  0  0  0  0  0  0  0
   38.4620   23.5780   35.3810 C   0  0  0  0  0  0  0  0  0  0  0  0
   39.7040   22.9660   35.4690 C   0  0  0  0  0  0  0  0  0  0  0  0
   40.1790   22.5630   36.7330 C   0  0  0  0  0  0  0  0  0  0  0  0
   39.3960   22.7950   37.7960 N   0  0  0  0  0  0  0  0  0  0  0  0
   38.1740   23.3990   37.7000 C   0  0  0  0  0  0  0  0  0  0  0  0
   37.7120   23.7870   36.5000 N   0  0  0  0  0  0  0  0  0  0  0  0
   40.3040   22.7980   34.5810 H   0  0  0  0  0  0  0  0  0  0  0  0
   41.1440   22.0860   36.8110 H   0  0  0  0  0  0  0  0  0  0  0  0
   37.6040   23.5490   38.6180 H   0  0  0  0  0  0  0  0  0  0  0  0
   37.1430   21.7620   33.2560 C   0  0  1  0  0  0  0  0  0  0  0  0
   36.2230   21.1210   34.2040 C   0  0  0  0  0  0  0  0  0  0  0  0
   35.7380   21.3660   32.8030 C   0  0  2  0  0  0  0  0  0  0  0  0
   37.9350   21.1800   32.7690 H   0  0  0  0  0  0  0  0  0  0  0  0
   36.5210   20.1450   34.5790 H   0  0  0  0  0  0  0  0  0  0  0  0
   35.7070   21.7360   34.9690 H   0  0  0  0  0  0  0  0  0  0  0  0
   34.9910   22.1760   32.6290 H   0  0  0  0  0  0  0  0  0  0  0  0
   35.5290   20.1620   31.9740 C   0  0  0  0  0  3  0  0  0  0  0  0
   35.3920   18.9480   32.9090 C   0  0  0  0  0  2  0  0  0  0  0  0
   36.1900   17.8390   32.2970 C   0  0  0  0  0  2  0  0  0  0  0  0
   36.3910   18.2620   30.8760 C   0  0  0  0  0  2  0  0  0  0  0  0
   36.6710   19.7650   31.0700 C   0  0  0  0  0  2  0  0  0  0  0  0
  1  8  1  0  0  0  0
  2  1  2  0  0  0  0
  2  6  1  0  0  0  0
  3  2  1  0  0  0  0
  4  3  2  0  0  0  0
  4  5  1  0  0  0  0
  5 17  1  0  0  0  0
  5  1  1  0  0  0  0
  7  4  1  0  0  0  0
  8  9  2  0  0  0  0
  8 13  1  0  0  0  0
  9 10  1  0  0  0  0
 10 15  1  0  0  0  0
 10 11  2  0  0  0  0
 12 11  1  0  0  0  0
 12 16  1  0  0  0  0
 13 12  2  0  0  0  0
 14  9  1  0  0  0  0
 17 20  1  6  0  0  0
 17 18  1  0  0  0  0
 18 21  1  0  0  0  0
 18 22  1  0  0  0  0
 19 23  1  6  0  0  0
 19 17  1  0  0  0  0
 19 18  1  0  0  0  0
 24 19  1  0  0  0  0
 24 25  1  0  0  0  0
 26 25  1  0  0  0  0
 27 28  1  0  0  0  0
 27 26  1  0  0  0  0
 28 24  1  0  0  0  0
M  END
>  <minimizedAffinity>
-4.72082949

>  <minimizedRMSD>
1.15009665

$$$$
