
     RDKit          3D

 46 49  0  0  0  0  0  0  0  0999 V2000
   38.0793   25.7615   35.4229 C   0  0  1  0  0  0  0  0  0  0  0  0
   38.6436   23.3827   38.3114 C   0  0  0  0  0  0  0  0  0  0  0  0
   38.0409   24.4209   37.5738 C   0  0  0  0  0  0  0  0  0  0  0  0
   38.6404   24.7026   36.2915 C   0  0  0  0  0  0  0  0  0  0  0  0
   39.7359   23.9684   35.8638 N   0  0  0  0  0  0  0  0  0  0  0  0
   40.2568   22.9995   36.6106 C   0  0  0  0  0  0  0  0  0  0  0  0
   39.7029   22.7047   37.8487 N   0  0  0  0  0  0  0  0  0  0  0  0
   38.3718   27.1344   36.0175 C   0  0  0  0  0  0  0  0  0  0  0  0
   38.5833   25.7109   34.0272 C   0  0  0  0  0  0  0  0  0  0  0  0
   37.5877   25.4430   33.0760 N   0  0  0  0  0  0  0  0  0  0  0  0
   37.0660   24.3378   32.5383 C   0  0  0  0  0  0  0  0  0  0  0  0
   36.0650   24.5661   31.6214 C   0  0  0  0  0  0  0  0  0  0  0  0
   35.9585   25.8864   31.5869 N   0  0  0  0  0  0  0  0  0  0  0  0
   36.8710   26.4251   32.4586 C   0  0  0  0  0  0  0  0  0  0  0  0
   36.9861   27.9369   32.5990 C   0  0  1  0  0  0  0  0  0  0  0  0
   35.8296   28.7008   32.0620 C   0  0  0  0  0  0  0  0  0  0  0  0
   36.0552   28.5994   33.5575 C   0  0  2  0  0  0  0  0  0  0  0  0
   36.9693   25.6955   35.4281 H   0  0  0  0  0  0  0  0  0  0  0  0
   38.1829   23.1899   39.2611 H   0  0  0  0  0  0  0  0  0  0  0  0
   37.1997   25.0023   37.8747 H   0  0  0  0  0  0  0  0  0  0  0  0
   41.0987   22.4290   36.2910 H   0  0  0  0  0  0  0  0  0  0  0  0
   38.7679   27.7859   35.2501 H   0  0  0  0  0  0  0  0  0  0  0  0
   39.2296   26.9697   36.7388 H   0  0  0  0  0  0  0  0  0  0  0  0
   37.5499   27.4975   36.6354 H   0  0  0  0  0  0  0  0  0  0  0  0
   39.1381   26.6400   33.7734 H   0  0  0  0  0  0  0  0  0  0  0  0
   39.3521   24.8993   33.9785 H   0  0  0  0  0  0  0  0  0  0  0  0
   37.4217   23.3332   32.8190 H   0  0  0  0  0  0  0  0  0  0  0  0
   35.5141   23.8292   31.0748 H   0  0  0  0  0  0  0  0  0  0  0  0
   38.0092   28.3448   32.6274 H   0  0  0  0  0  0  0  0  0  0  0  0
   36.0389   29.5842   31.4819 H   0  0  0  0  0  0  0  0  0  0  0  0
   34.9550   28.1062   31.6695 H   0  0  0  0  0  0  0  0  0  0  0  0
   35.3112   27.9413   34.1135 H   0  0  0  0  0  0  0  0  0  0  0  0
   36.1949   29.9315   34.1693 C   0  0  0  0  0  0  0  0  0  0  0  0
   36.5239   30.0643   35.6042 C   0  0  0  0  0  0  0  0  0  0  0  0
   36.7718   31.5760   35.7437 C   0  0  0  0  0  0  0  0  0  0  0  0
   37.5384   31.9019   34.4976 C   0  0  0  0  0  0  0  0  0  0  0  0
   37.3552   30.7547   33.5521 C   0  0  0  0  0  0  0  0  0  0  0  0
   35.3016   30.5657   33.9373 H   0  0  0  0  0  0  0  0  0  0  0  0
   37.4321   29.5670   35.9303 H   0  0  0  0  0  0  0  0  0  0  0  0
   35.6257   29.8090   36.2109 H   0  0  0  0  0  0  0  0  0  0  0  0
   35.7620   32.0784   35.7032 H   0  0  0  0  0  0  0  0  0  0  0  0
   37.3016   31.8194   36.6874 H   0  0  0  0  0  0  0  0  0  0  0  0
   37.2271   32.8623   34.0364 H   0  0  0  0  0  0  0  0  0  0  0  0
   38.6155   32.0188   34.8168 H   0  0  0  0  0  0  0  0  0  0  0  0
   38.3075   30.1653   33.5706 H   0  0  0  0  0  0  0  0  0  0  0  0
   37.1619   31.0691   32.5394 H   0  0  0  0  0  0  0  0  0  0  0  0
  1  8  1  0
  1  4  1  0
  3  2  2  0
  4  3  1  0
  5  4  2  0
  5  6  1  0
  6  7  2  0
  7  2  1  0
  9  1  1  0
 10  9  1  0
 11 10  1  0
 12 11  2  0
 13 12  1  0
 13 14  2  0
 14 15  1  0
 14 10  1  0
 15 17  1  0
 16 15  1  0
 16 17  1  0
  1 18  1  6
  2 19  1  0
  3 20  1  0
  6 21  1  0
  8 22  1  0
  8 23  1  0
  8 24  1  0
  9 25  1  0
  9 26  1  0
 11 27  1  0
 12 28  1  0
 15 29  1  6
 16 30  1  0
 16 31  1  0
 17 32  1  1
 33 34  1  0
 34 35  1  0
 35 36  1  0
 36 37  1  0
 37 33  1  0
 33 38  1  0
 34 39  1  0
 34 40  1  0
 35 41  1  0
 35 42  1  0
 36 43  1  0
 36 44  1  0
 37 45  1  0
 37 46  1  0
 17 33  1  0
M  ISO  8  18   8  19  14  20  14  21  14  22   8  23   8  24   8  25   8
M  ISO  7  26   8  27  14  28  14  29  13  30  13  31  13  32  13
M  END
>  <DihAtoms>  (1) 
14,16,32,33

>  <DihDeg>  (1) 
-63.46081736260043

$$$$
