
 OpenBabel03262518233D

 21 22  0  0  0  0  0  0  0  0999 V2000
   39.9740   23.1240   36.9550 C   0  0  0  0  0  0  0  0  0  0  0  0
   39.3610   23.9610   36.0140 C   0  0  0  0  0  0  0  0  0  0  0  0
   38.2380   24.6820   36.4550 C   0  0  0  0  0  0  0  0  0  0  0  0
   37.8100   24.5380   37.7330 N   0  0  0  0  0  0  0  0  0  0  0  0
   38.4440   23.7100   38.6050 C   0  0  0  0  0  0  0  0  0  0  0  0
   39.5250   23.0050   38.2090 N   0  0  0  0  0  0  0  0  0  0  0  0
   39.7140   24.0620   35.0100 H   0  0  0  0  0  0  0  0  0  0  0  0
   37.9630   23.7230   39.5740 H   0  0  0  0  0  0  0  0  0  0  0  0
   37.5360   25.5710   35.5670 N   0  0  0  0  0  0  0  0  0  0  0  0
   37.9210   26.9400   35.5000 C   0  0  0  0  0  0  0  0  0  0  0  0
   38.5570   27.5050   36.4720 N   0  0  0  0  0  0  0  0  0  0  0  0
   37.5660   27.6320   34.3120 N   0  0  0  0  0  0  0  0  0  0  0  0
   38.8880   28.4930   36.4530 H   0  0  0  0  0  0  0  0  0  0  0  0
   36.7500   25.1870   34.9850 H   0  0  0  0  0  0  0  0  0  0  0  0
   36.6090   28.0480   34.3330 H   0  0  0  0  0  0  0  0  0  0  0  0
   38.3490   27.5950   33.6210 H   0  0  0  0  0  0  0  0  0  0  0  0
   41.1450   22.3760   36.4850 C   0  0  0  0  0  0  0  0  0  0  0  0
   41.5640   21.2230   37.3260 C   0  0  0  0  0  0  0  0  0  0  0  0
   42.9890   20.9600   36.8600 C   0  0  0  0  0  0  0  0  0  0  0  0
   43.3950   22.1530   36.0150 C   0  0  0  0  0  0  0  0  0  0  0  0
   42.4160   23.2350   36.4960 C   0  0  0  0  0  0  0  0  0  0  0  0
  1  6  1  0  0  0  0
  2  3  1  0  0  0  0
  2  1  2  0  0  0  0
  3  4  2  0  0  0  0
  4  5  1  0  0  0  0
  5  8  1  0  0  0  0
  6  5  2  0  0  0  0
  7  2  1  0  0  0  0
  9  3  1  0  0  0  0
 10  9  1  0  0  0  0
 10 11  2  0  0  0  0
 12 15  1  0  0  0  0
 12 10  1  0  0  0  0
 13 11  1  0  0  0  0
 14  9  1  0  0  0  0
 16 12  1  0  0  0  0
 17 21  1  0  0  0  0
 17  1  1  0  0  0  0
 17 18  1  0  0  0  0
 19 18  1  0  0  0  0
 20 21  1  0  0  0  0
 20 19  1  0  0  0  0
M  END
>  <minimizedAffinity>
-4.80776882

>  <minimizedRMSD>
0.479068011

$$$$
