
 OpenBabel03262513073D

 27 29  0  0  1  0  0  0  0  0999 V2000
   41.3120   22.9850   35.6560 C   0  0  1  0  0  0  0  0  0  0  0  0
   42.4770   23.8700   35.3240 C   0  0  0  0  0  0  0  0  0  0  0  0
   43.7040   23.1320   35.7730 C   0  0  2  0  0  0  0  0  0  0  0  0
   43.2070   21.8410   36.3810 C   0  0  0  0  0  0  0  0  0  0  0  0
   41.8590   22.3130   36.9200 C   0  0  0  0  0  0  0  0  0  0  0  0
   41.1640   22.1470   34.9490 H   0  0  0  0  0  0  0  0  0  0  0  0
   42.3060   24.8080   35.8890 H   0  0  0  0  0  0  0  0  0  0  0  0
   42.4900   24.0200   34.2270 H   0  0  0  0  0  0  0  0  0  0  0  0
   44.3300   22.8650   34.9000 H   0  0  0  0  0  0  0  0  0  0  0  0
   42.9830   21.0710   35.6180 H   0  0  0  0  0  0  0  0  0  0  0  0
   43.8560   21.4700   37.1990 H   0  0  0  0  0  0  0  0  0  0  0  0
   41.2700   21.4600   37.2520 H   0  0  0  0  0  0  0  0  0  0  0  0
   41.9790   23.1310   37.6620 H   0  0  0  0  0  0  0  0  0  0  0  0
   39.0740   23.2760   36.7680 C   0  0  0  0  0  0  0  0  0  0  0  0
   40.0600   23.7380   35.8960 C   0  0  0  0  0  0  0  0  0  0  0  0
   39.8600   24.9620   35.2010 C   0  0  0  0  0  0  0  0  0  0  0  0
   38.7110   25.6270   35.4230 N   0  0  0  0  0  0  0  0  0  0  0  0
   37.7620   25.1650   36.2750 C   0  0  0  0  0  0  0  0  0  0  0  0
   37.9590   23.9970   36.9340 N   0  0  0  0  0  0  0  0  0  0  0  0
   39.3230   22.3390   37.2440 H   0  0  0  0  0  0  0  0  0  0  0  0
   40.5310   25.4090   34.5130 H   0  0  0  0  0  0  0  0  0  0  0  0
   36.8630   25.7270   36.4210 H   0  0  0  0  0  0  0  0  0  0  0  0
   44.5340   23.8070   36.7950 C   0  0  0  0  0  0  0  0  0  0  0  0
   45.9900   23.6630   36.3850 C   0  0  0  0  0  0  0  0  0  0  0  0
   46.5440   25.0580   36.2580 C   0  0  0  0  0  0  0  0  0  0  0  0
   45.3710   25.9870   36.2190 C   0  0  0  0  0  0  0  0  0  0  0  0
   44.3530   25.2350   37.0490 C   0  0  0  0  0  0  0  0  0  0  0  0
  1  6  1  6  0  0  0
  1 15  1  0  0  0  0
  1  5  1  0  0  0  0
  2  1  1  0  0  0  0
  2  3  1  0  0  0  0
  2  7  1  0  0  0  0
  3  9  1  6  0  0  0
  3  4  1  0  0  0  0
  3 23  1  0  0  0  0
  4  5  1  0  0  0  0
  4 11  1  0  0  0  0
  5 12  1  0  0  0  0
  5 13  1  0  0  0  0
  8  2  1  0  0  0  0
 10  4  1  0  0  0  0
 14 19  1  0  0  0  0
 14 20  1  0  0  0  0
 15 14  2  0  0  0  0
 16 17  2  0  0  0  0
 16 15  1  0  0  0  0
 17 18  1  0  0  0  0
 18 22  1  0  0  0  0
 18 19  2  0  0  0  0
 21 16  1  0  0  0  0
 23 27  1  0  0  0  0
 24 23  1  0  0  0  0
 25 24  1  0  0  0  0
 26 25  1  0  0  0  0
 26 27  1  0  0  0  0
M  END
>  <minimizedAffinity>
-4.09080362

>  <minimizedRMSD>
1.92345035

$$$$
