
 OpenBabel03262519583D

 32 35  0  0  1  0  0  0  0  0999 V2000
   38.1270   23.9280   34.7080 C   0  0  0  0  0  0  0  0  0  0  0  0
   38.2770   25.1480   34.0500 C   0  0  0  0  0  0  0  0  0  0  0  0
   37.8660   24.8860   32.7770 N   0  0  0  0  0  0  0  0  0  0  0  0
   37.5090   23.6050   32.7180 C   0  0  0  0  0  0  0  0  0  0  0  0
   37.6580   22.9810   33.9040 N   0  0  0  0  0  0  0  0  0  0  0  0
   38.6470   26.0480   34.5380 H   0  0  0  0  0  0  0  0  0  0  0  0
   37.1370   23.1390   31.7910 H   0  0  0  0  0  0  0  0  0  0  0  0
   38.4410   23.7030   36.1070 C   0  0  0  0  0  0  0  0  0  0  0  0
   39.6320   23.0540   36.4760 C   0  0  0  0  0  0  0  0  0  0  0  0
   39.8840   22.8630   37.8470 C   0  0  0  0  0  0  0  0  0  0  0  0
   38.9720   23.3110   38.7280 N   0  0  0  0  0  0  0  0  0  0  0  0
   37.8280   23.9350   38.3470 C   0  0  0  0  0  0  0  0  0  0  0  0
   37.5660   24.1280   37.0440 N   0  0  0  0  0  0  0  0  0  0  0  0
   40.3340   22.7100   35.7540 H   0  0  0  0  0  0  0  0  0  0  0  0
   40.7690   22.3760   38.2130 H   0  0  0  0  0  0  0  0  0  0  0  0
   37.0950   24.2950   39.0530 H   0  0  0  0  0  0  0  0  0  0  0  0
   37.3510   21.6030   34.1310 C   0  0  1  0  0  0  0  0  0  0  0  0
   36.1280   21.1480   34.7660 C   0  0  0  0  0  0  0  0  0  0  0  0
   36.2210   21.1010   33.2480 C   0  0  2  0  0  0  0  0  0  0  0  0
   38.2480   20.9740   34.2570 H   0  0  0  0  0  0  0  0  0  0  0  0
   36.0560   20.2190   35.3360 H   0  0  0  0  0  0  0  0  0  0  0  0
   35.4540   21.9580   35.1690 H   0  0  0  0  0  0  0  0  0  0  0  0
   35.6000   21.7980   32.6850 H   0  0  0  0  0  0  0  0  0  0  0  0
   36.2900   19.7340   32.6770 C   0  0  0  0  0  0  0  0  0  0  0  0
   37.4130   19.4230   31.9040 C   0  0  0  0  0  0  0  0  0  0  0  0
   38.2040   20.1480   31.7260 H   0  0  0  0  0  0  0  0  0  0  0  0
   37.5040   18.1570   31.3600 C   0  0  0  0  0  3  0  0  0  0  0  0
   36.4750   17.2460   31.6050 C   0  0  0  0  0  0  0  0  0  0  0  0
   36.5400   16.2530   31.1820 H   0  0  0  0  0  0  0  0  0  0  0  0
   35.3620   17.5700   32.3770 C   0  0  0  0  0  0  0  0  0  0  0  0
   34.5840   16.8090   32.5350 H   0  0  0  0  0  0  0  0  0  0  0  0
   35.2700   18.8420   32.9240 C   0  0  0  0  0  3  0  0  0  0  0  0
  1  8  1  0  0  0  0
  2  6  1  0  0  0  0
  2  1  2  0  0  0  0
  3  2  1  0  0  0  0
  4  3  2  0  0  0  0
  4  5  1  0  0  0  0
  5 17  1  0  0  0  0
  5  1  1  0  0  0  0
  7  4  1  0  0  0  0
  8  9  2  0  0  0  0
  8 13  1  0  0  0  0
  9 10  1  0  0  0  0
 10 15  1  0  0  0  0
 10 11  2  0  0  0  0
 12 11  1  0  0  0  0
 12 16  1  0  0  0  0
 13 12  2  0  0  0  0
 14  9  1  0  0  0  0
 17 20  1  1  0  0  0
 17 18  1  0  0  0  0
 18 22  1  0  0  0  0
 18 21  1  0  0  0  0
 19 23  1  6  0  0  0
 19 17  1  0  0  0  0
 19 18  1  0  0  0  0
 24 32  1  0  0  0  0
 24 19  1  0  0  0  0
 25 24  2  0  0  0  0
 26 25  1  0  0  0  0
 27 28  2  0  0  0  0
 27 25  1  0  0  0  0
 28 30  1  0  0  0  0
 29 28  1  0  0  0  0
 30 31  1  0  0  0  0
 30 32  2  0  0  0  0
M  END
>  <minimizedAffinity>
-5.13545942

>  <minimizedRMSD>
1.11551392

$$$$
