
 OpenBabel03262508263D

 36 39  0  0  1  0  0  0  0  0999 V2000
   39.0070   23.8070   33.3940 C   0  0  1  0  0  0  0  0  0  0  0  0
   38.0550   22.5740   33.3450 C   0  0  0  0  0  0  0  0  0  0  0  0
   38.3080   23.4740   32.1640 C   0  0  1  0  0  0  0  0  0  0  0  0
   40.0310   23.4340   33.6300 H   0  0  0  0  0  0  0  0  0  0  0  0
   37.1920   22.6690   33.9950 H   0  0  0  0  0  0  0  0  0  0  0  0
   38.5280   21.5860   33.3800 H   0  0  0  0  0  0  0  0  0  0  0  0
   37.0600   24.1130   31.6460 C   0  0  0  0  0  0  0  0  0  0  0  0
   35.7620   23.5650   31.6820 C   0  0  0  0  0  0  0  0  0  0  0  0
   35.6430   22.5720   32.0830 H   0  0  0  0  0  0  0  0  0  0  0  0
   34.6190   24.1750   31.2270 C   0  0  0  0  0  0  0  0  0  0  0  0
   34.7540   25.4340   30.6870 C   0  0  0  0  0  0  0  0  0  0  0  0
   33.8530   25.9090   30.3290 H   0  0  0  0  0  0  0  0  0  0  0  0
   35.9780   26.0610   30.6030 C   0  0  0  0  0  0  0  0  0  0  0  0
   35.9990   27.0420   30.1680 H   0  0  0  0  0  0  0  0  0  0  0  0
   37.0720   25.3800   31.0830 C   0  0  0  0  0  0  0  0  0  0  0  0
   39.2270   24.9440   35.5330 C   0  0  0  0  0  0  0  0  0  0  0  0
   38.5900   24.8730   34.3420 C   0  0  0  0  0  0  0  0  0  0  0  0
   37.6650   25.8230   34.0150 C   0  0  0  0  0  0  0  0  0  0  0  0
   37.3980   26.8240   34.8840 N   0  0  0  0  0  0  0  0  0  0  0  0
   38.0350   26.8950   36.0760 C   0  0  0  0  0  0  0  0  0  0  0  0
   38.9620   25.9440   36.4070 N   0  0  0  0  0  0  0  0  0  0  0  0
   37.0580   25.9690   33.1720 H   0  0  0  0  0  0  0  0  0  0  0  0
   37.9010   27.6470   36.8420 H   0  0  0  0  0  0  0  0  0  0  0  0
   42.2970   22.9830   36.0030 C   0  0  0  0  0  0  0  0  0  0  0  0
   41.8780   21.9600   36.8350 C   0  0  0  0  0  0  0  0  0  0  0  0
   40.5410   21.9420   37.2320 C   0  0  0  0  0  0  0  0  0  0  0  0
   39.7680   22.9430   36.7590 N   0  0  0  0  0  0  0  0  0  0  0  0
   40.2020   23.9320   35.9480 C   0  0  0  0  0  0  0  0  0  0  0  0
   41.4540   23.9500   35.5750 N   0  0  0  0  0  0  0  0  0  0  0  0
   43.3470   22.9670   35.7120 H   0  0  0  0  0  0  0  0  0  0  0  0
   42.4950   21.1620   37.2120 H   0  0  0  0  0  0  0  0  0  0  0  0
   40.1070   21.2010   37.8710 H   0  0  0  0  0  0  0  0  0  0  0  0
   39.0760   22.9390   30.9570 C   0  0  0  0  0  0  0  0  0  0  0  0
   39.8680   21.8920   31.4350 F   0  0  0  0  0  0  0  0  0  0  0  0
   38.1810   22.3650   30.0660 F   0  0  0  0  0  0  0  0  0  0  0  0
   39.8630   23.8570   30.3620 F   0  0  0  0  0  0  0  0  0  0  0  0
  1  4  1  1  0  0  0
  1 17  1  0  0  0  0
  2  6  1  0  0  0  0
  2  1  1  0  0  0  0
  2  5  1  0  0  0  0
  3 33  1  6  0  0  0
  3  2  1  0  0  0  0
  3  1  1  0  0  0  0
  7  8  1  0  0  0  0
  7  3  1  0  0  0  0
  8  9  1  0  0  0  0
 10  8  2  0  0  0  0
 11 10  1  0  0  0  0
 12 11  1  0  0  0  0
 13 11  2  0  0  0  0
 13 15  1  0  0  0  0
 14 13  1  0  0  0  0
 15  7  2  0  0  0  0
 16 28  1  0  0  0  0
 16 21  1  0  0  0  0
 17 16  2  0  0  0  0
 18 17  1  0  0  0  0
 18 19  2  0  0  0  0
 19 20  1  0  0  0  0
 20 21  2  0  0  0  0
 20 23  1  0  0  0  0
 22 18  1  0  0  0  0
 24 25  1  0  0  0  0
 25 31  1  0  0  0  0
 25 26  2  0  0  0  0
 26 32  1  0  0  0  0
 27 26  1  0  0  0  0
 28 27  2  0  0  0  0
 29 28  1  0  0  0  0
 29 24  2  0  0  0  0
 30 24  1  0  0  0  0
 33 34  1  0  0  0  0
 35 33  1  0  0  0  0
 36 33  1  0  0  0  0
M  END
>  <minimizedAffinity>
-4.23450518

>  <minimizedRMSD>
4.15370417

$$$$
