
 OpenBabel03262519093D

 37 40  0  0  1  0  0  0  0  0999 V2000
   37.8950   26.0530   34.5210 C   0  0  0  0  0  0  0  0  0  0  0  0
   37.3360   26.0010   35.4900 H   0  0  0  0  0  0  0  0  0  0  0  0
   38.9160   26.4120   34.8150 H   0  0  0  0  0  0  0  0  0  0  0  0
   37.2510   27.1360   33.7460 C   0  0  0  0  0  0  0  0  0  0  0  0
   37.1840   27.3410   32.3830 C   0  0  0  0  0  0  0  0  0  0  0  0
   36.5410   28.4010   31.7940 C   0  0  0  0  0  0  0  0  0  0  0  0
   35.9290   29.3130   32.6390 C   0  0  0  0  0  0  0  0  0  0  0  0
   36.0120   29.0870   33.9860 C   0  0  0  0  0  0  0  0  0  0  0  0
   36.6410   28.0490   34.5510 N   0  0  0  0  0  0  0  0  0  0  0  0
   37.6980   26.5630   31.8300 H   0  0  0  0  0  0  0  0  0  0  0  0
   36.5700   28.4320   30.7290 H   0  0  0  0  0  0  0  0  0  0  0  0
   35.4410   30.1220   32.1210 H   0  0  0  0  0  0  0  0  0  0  0  0
   35.3630   30.0570   34.8690 C   0  0  0  0  0  0  0  0  0  0  0  0
   33.9780   30.0480   34.9390 C   0  0  0  0  0  0  0  0  0  0  0  0
   33.3270   29.3860   34.3990 H   0  0  0  0  0  0  0  0  0  0  0  0
   33.2720   30.9240   35.7430 C   0  0  0  0  0  0  0  0  0  0  0  0
   33.9480   31.8500   36.5120 C   0  0  0  0  0  0  0  0  0  0  0  0
   33.4290   32.5550   37.1560 H   0  0  0  0  0  0  0  0  0  0  0  0
   35.3260   31.8780   36.4590 C   0  0  0  0  0  0  0  0  0  0  0  0
   35.9230   32.5920   37.0470 H   0  0  0  0  0  0  0  0  0  0  0  0
   35.9830   30.9840   35.6420 C   0  0  0  0  0  0  0  0  0  0  0  0
   38.1520   23.4280   34.5440 C   0  0  2  0  0  0  0  0  0  0  0  0
   39.1820   24.0770   33.6870 C   0  0  0  0  0  0  0  0  0  0  0  0
   37.8430   24.7240   33.8880 C   0  0  2  0  0  0  0  0  0  0  0  0
   37.5040   22.5930   34.2290 H   0  0  0  0  0  0  0  0  0  0  0  0
   39.3680   23.5330   32.7360 H   0  0  0  0  0  0  0  0  0  0  0  0
   40.1000   24.4660   34.1430 H   0  0  0  0  0  0  0  0  0  0  0  0
   37.1500   24.6840   32.9960 H   0  0  0  0  0  0  0  0  0  0  0  0
   39.8100   22.8650   37.7700 C   0  0  0  0  0  0  0  0  0  0  0  0
   38.9150   23.3800   38.7330 C   0  0  0  0  0  0  0  0  0  0  0  0
   37.7080   23.9360   38.2020 C   0  0  0  0  0  0  0  0  0  0  0  0
   37.5140   23.9310   36.8660 N   0  0  0  0  0  0  0  0  0  0  0  0
   38.4340   23.4110   35.9930 C   0  0  0  0  0  0  0  0  0  0  0  0
   39.6010   22.8690   36.4570 N   0  0  0  0  0  0  0  0  0  0  0  0
   40.7220   22.4450   38.1900 H   0  0  0  0  0  0  0  0  0  0  0  0
   39.1520   23.3420   39.7770 H   0  0  0  0  0  0  0  0  0  0  0  0
   37.0080   24.3360   38.9020 H   0  0  0  0  0  0  0  0  0  0  0  0
  1  3  1  0  0  0  0
  1  2  1  0  0  0  0
  4  1  1  0  0  0  0
  4  9  1  0  0  0  0
  5  4  2  0  0  0  0
  6  5  1  0  0  0  0
  6  7  2  0  0  0  0
  7  8  1  0  0  0  0
  8  9  2  0  0  0  0
  8 13  1  0  0  0  0
 10  5  1  0  0  0  0
 11  6  1  0  0  0  0
 12  7  1  0  0  0  0
 13 14  2  0  0  0  0
 13 21  1  0  0  0  0
 14 16  1  0  0  0  0
 15 14  1  0  0  0  0
 16 17  2  0  0  0  0
 17 18  1  0  0  0  0
 19 17  1  0  0  0  0
 19 20  1  0  0  0  0
 21 19  2  0  0  0  0
 22 25  1  6  0  0  0
 22 33  1  0  0  0  0
 23 24  1  0  0  0  0
 23 27  1  0  0  0  0
 23 22  1  0  0  0  0
 24 28  1  6  0  0  0
 24  1  1  0  0  0  0
 24 22  1  0  0  0  0
 26 23  1  0  0  0  0
 29 35  1  0  0  0  0
 29 30  1  0  0  0  0
 30 36  1  0  0  0  0
 31 30  2  0  0  0  0
 31 37  1  0  0  0  0
 32 31  1  0  0  0  0
 33 34  1  0  0  0  0
 33 32  2  0  0  0  0
 34 29  2  0  0  0  0
M  END
>  <minimizedAffinity>
-5.9397397

>  <minimizedRMSD>
5.73515224

$$$$
