
     RDKit          3D

 37 40  0  0  0  0  0  0  0  0999 V2000
   37.8690   23.6966   33.5011 C   0  0  0  0  0  0  0  0  0  0  0  0
   37.4674   22.6578   32.6654 C   0  0  0  0  0  0  0  0  0  0  0  0
   37.4843   21.5628   33.4848 N   0  0  0  0  0  0  0  0  0  0  0  0
   37.8688   21.9655   34.6931 C   0  0  0  0  0  0  0  0  0  0  0  0
   38.1106   23.2716   34.7293 N   0  0  0  0  0  0  0  0  0  0  0  0
   38.0148   25.0828   33.0757 C   0  0  0  0  0  0  0  0  0  0  0  0
   39.2976   25.5854   32.7707 C   0  0  0  0  0  0  0  0  0  0  0  0
   39.3922   26.9328   32.3609 C   0  0  0  0  0  0  0  0  0  0  0  0
   38.2407   27.6511   32.2890 N   0  0  0  0  0  0  0  0  0  0  0  0
   37.0312   27.1312   32.5902 C   0  0  0  0  0  0  0  0  0  0  0  0
   36.9113   25.8496   32.9837 N   0  0  0  0  0  0  0  0  0  0  0  0
   38.5292   23.9468   35.8997 C   0  0  1  0  0  0  0  0  0  0  0  0
   38.0724   25.2287   36.3633 C   0  0  0  0  0  0  0  0  0  0  0  0
   37.5597   23.9212   37.0299 C   0  0  2  0  0  0  0  0  0  0  0  0
   38.1266   23.7645   38.4271 C   0  0  0  0  0  0  0  0  0  0  0  0
   37.5179   22.7023   39.0661 F   0  0  0  0  0  0  0  0  0  0  0  0
   39.5158   23.3471   38.3042 F   0  0  0  0  0  0  0  0  0  0  0  0
   38.1374   24.9001   39.1428 F   0  0  0  0  0  0  0  0  0  0  0  0
   37.2120   22.7505   31.6151 H   0  0  0  0  0  0  0  0  0  0  0  0
   37.9155   21.1555   35.4295 H   0  0  0  0  0  0  0  0  0  0  0  0
   40.1165   24.8897   32.8765 H   0  0  0  0  0  0  0  0  0  0  0  0
   40.3697   27.2868   32.1371 H   0  0  0  0  0  0  0  0  0  0  0  0
   36.2114   27.8275   32.4843 H   0  0  0  0  0  0  0  0  0  0  0  0
   39.6156   23.7072   36.1687 H   0  0  0  0  0  0  0  0  0  0  0  0
   38.6846   25.8872   36.9993 H   0  0  0  0  0  0  0  0  0  0  0  0
   37.3075   25.7834   35.8019 H   0  0  0  0  0  0  0  0  0  0  0  0
   36.0674   23.9737   36.9803 C   0  0  0  0  0  0  0  0  0  0  0  0
   35.4894   22.7302   37.2209 C   0  0  0  0  0  0  0  0  0  0  0  0
   35.9250   21.7635   37.4308 H   0  0  0  0  0  0  0  0  0  0  0  0
   34.0972   22.6073   37.2108 C   0  0  0  0  0  0  0  0  0  0  0  0
   33.2985   23.7171   36.9628 C   0  0  0  0  0  0  0  0  0  0  0  0
   32.2262   23.6847   36.9422 H   0  0  0  0  0  0  0  0  0  0  0  0
   33.8917   24.9281   36.7294 C   0  0  0  0  0  0  0  0  0  0  0  0
   33.3029   25.8237   36.5307 H   0  0  0  0  0  0  0  0  0  0  0  0
   35.2443   25.0540   36.7379 C   0  0  0  0  0  0  0  0  0  0  0  0
   33.5262   21.7051   37.3814 H   0  0  0  0  0  0  0  0  0  0  0  0
   35.7701   25.9618   36.5662 H   0  0  0  0  0  0  0  0  0  0  0  0
  1  5  1  0
  2  3  1  0
  2  1  2  0
  3  4  2  0
  4  5  1  0
  5 12  1  0
  6  1  1  0
  7  6  2  0
  8  7  1  0
  9  8  2  0
  9 10  1  0
 10 11  2  0
 11  6  1  0
 12 13  1  0
 12 14  1  0
 13 14  1  0
 14 15  1  1
 15 16  1  0
 15 18  1  0
 17 15  1  0
  2 19  1  0
  4 20  1  0
  7 21  1  0
  8 22  1  0
 10 23  1  0
 12 24  1  1
 13 25  1  0
 13 26  1  0
 27 28  2  0
 28 29  1  0
 28 30  1  0
 30 31  2  0
 31 32  1  0
 31 33  1  0
 33 34  1  0
 33 35  2  0
 35 27  1  0
 30 36  1  0
 35 37  1  0
 14 27  1  0
M  ISO  8  19  14  20  14  21  14  22  14  23  14  24  13  25  13  26  13
M  ISO  3  29  16  32  16  34  16
M  END
>  <DihAtoms>  (1) 
11,13,26,27

>  <DihDeg>  (1) 
89.49453848167164

$$$$
