
 OpenBabel03262519583D

 32 35  0  0  1  0  0  0  0  0999 V2000
   38.1420   27.1440   32.3850 C   0  0  0  0  0  0  0  0  0  0  0  0
   37.1170   27.6800   31.6060 C   0  0  0  0  0  0  0  0  0  0  0  0
   36.2100   28.1260   32.5190 N   0  0  0  0  0  0  0  0  0  0  0  0
   36.6870   27.8600   33.7330 C   0  0  0  0  0  0  0  0  0  0  0  0
   37.8890   27.2500   33.6840 N   0  0  0  0  0  0  0  0  0  0  0  0
   37.1380   27.6900   30.5160 H   0  0  0  0  0  0  0  0  0  0  0  0
   36.1390   28.1220   34.6530 H   0  0  0  0  0  0  0  0  0  0  0  0
   39.3490   26.5390   31.8540 C   0  0  0  0  0  0  0  0  0  0  0  0
   39.4210   25.1490   31.6500 C   0  0  0  0  0  0  0  0  0  0  0  0
   40.6170   24.6170   31.1330 C   0  0  0  0  0  0  0  0  0  0  0  0
   41.6240   25.4670   30.8640 N   0  0  0  0  0  0  0  0  0  0  0  0
   41.5310   26.8060   31.0690 C   0  0  0  0  0  0  0  0  0  0  0  0
   40.4000   27.3360   31.5620 N   0  0  0  0  0  0  0  0  0  0  0  0
   38.6050   24.5030   31.8740 H   0  0  0  0  0  0  0  0  0  0  0  0
   40.7540   23.5680   30.9480 H   0  0  0  0  0  0  0  0  0  0  0  0
   42.3390   27.4890   30.8530 H   0  0  0  0  0  0  0  0  0  0  0  0
   38.6350   26.8490   34.8360 C   0  0  1  0  0  0  0  0  0  0  0  0
   38.3690   27.3410   36.1750 C   0  0  0  0  0  0  0  0  0  0  0  0
   37.8280   25.9750   35.7820 C   0  0  2  0  0  0  0  0  0  0  0  0
   39.6730   26.5620   34.6010 H   0  0  0  0  0  0  0  0  0  0  0  0
   39.1350   27.4210   36.9490 H   0  0  0  0  0  0  0  0  0  0  0  0
   37.5860   28.1500   36.2540 H   0  0  0  0  0  0  0  0  0  0  0  0
   36.7490   25.8760   35.6680 H   0  0  0  0  0  0  0  0  0  0  0  0
   38.4850   24.8330   36.4630 C   0  0  0  0  0  0  0  0  0  0  0  0
   39.5310   24.2020   35.7840 C   0  0  0  0  0  0  0  0  0  0  0  0
   39.8530   24.5290   34.7970 H   0  0  0  0  0  0  0  0  0  0  0  0
   40.1610   23.1360   36.3940 C   0  0  0  0  0  3  0  0  0  0  0  0
   39.7290   22.7380   37.6600 C   0  0  0  0  0  0  0  0  0  0  0  0
   40.2190   21.9030   38.1450 H   0  0  0  0  0  0  0  0  0  0  0  0
   38.6860   23.3750   38.3260 C   0  0  0  0  0  0  0  0  0  0  0  0
   38.3900   23.0150   39.3220 H   0  0  0  0  0  0  0  0  0  0  0  0
   38.0520   24.4460   37.7120 C   0  0  0  0  0  3  0  0  0  0  0  0
  1  5  1  0  0  0  0
  2  1  2  0  0  0  0
  2  3  1  0  0  0  0
  3  4  2  0  0  0  0
  4  7  1  0  0  0  0
  5  4  1  0  0  0  0
  5 17  1  0  0  0  0
  6  2  1  0  0  0  0
  8  1  1  0  0  0  0
  9  8  1  0  0  0  0
  9 14  1  0  0  0  0
 10  9  2  0  0  0  0
 11 12  2  0  0  0  0
 11 10  1  0  0  0  0
 12 13  1  0  0  0  0
 13  8  2  0  0  0  0
 15 10  1  0  0  0  0
 16 12  1  0  0  0  0
 17 20  1  6  0  0  0
 17 19  1  0  0  0  0
 17 18  1  0  0  0  0
 18 22  1  0  0  0  0
 18 21  1  0  0  0  0
 19 23  1  6  0  0  0
 19 18  1  0  0  0  0
 19 24  1  0  0  0  0
 24 32  1  0  0  0  0
 25 27  1  0  0  0  0
 25 24  2  0  0  0  0
 26 25  1  0  0  0  0
 27 28  2  0  0  0  0
 28 29  1  0  0  0  0
 28 30  1  0  0  0  0
 30 31  1  0  0  0  0
 32 30  2  0  0  0  0
M  END
>  <minimizedAffinity>
-4.92017174

>  <minimizedRMSD>
6.7475028

$$$$
