
 OpenBabel03262519583D

 32 35  0  0  1  0  0  0  0  0999 V2000
   38.0930   23.8310   34.6200 C   0  0  0  0  0  0  0  0  0  0  0  0
   38.2280   25.0510   33.9580 C   0  0  0  0  0  0  0  0  0  0  0  0
   37.7730   24.7940   32.7000 N   0  0  0  0  0  0  0  0  0  0  0  0
   37.4060   23.5150   32.6520 C   0  0  0  0  0  0  0  0  0  0  0  0
   37.5920   22.8880   33.8310 N   0  0  0  0  0  0  0  0  0  0  0  0
   38.6200   25.9490   34.4350 H   0  0  0  0  0  0  0  0  0  0  0  0
   37.0010   23.0520   31.7380 H   0  0  0  0  0  0  0  0  0  0  0  0
   38.4520   23.6030   36.0080 C   0  0  0  0  0  0  0  0  0  0  0  0
   39.6800   23.0010   36.3380 C   0  0  0  0  0  0  0  0  0  0  0  0
   39.9750   22.8040   37.6990 C   0  0  0  0  0  0  0  0  0  0  0  0
   39.0670   23.2020   38.6080 N   0  0  0  0  0  0  0  0  0  0  0  0
   37.8880   23.7810   38.2650 C   0  0  0  0  0  0  0  0  0  0  0  0
   37.5840   23.9780   36.9720 N   0  0  0  0  0  0  0  0  0  0  0  0
   40.3770   22.6970   35.5930 H   0  0  0  0  0  0  0  0  0  0  0  0
   40.8890   22.3520   38.0360 H   0  0  0  0  0  0  0  0  0  0  0  0
   37.1590   24.1000   38.9940 H   0  0  0  0  0  0  0  0  0  0  0  0
   37.2830   21.5120   34.0680 C   0  0  1  0  0  0  0  0  0  0  0  0
   36.0240   21.0560   34.6260 C   0  0  0  0  0  0  0  0  0  0  0  0
   36.2230   20.9780   33.1200 C   0  0  2  0  0  0  0  0  0  0  0  0
   38.1760   20.8970   34.2690 H   0  0  0  0  0  0  0  0  0  0  0  0
   35.9230   20.1390   35.2100 H   0  0  0  0  0  0  0  0  0  0  0  0
   35.3160   21.8660   34.9630 H   0  0  0  0  0  0  0  0  0  0  0  0
   35.6350   21.6550   32.5000 H   0  0  0  0  0  0  0  0  0  0  0  0
   36.3460   19.6000   32.5850 C   0  0  0  0  0  0  0  0  0  0  0  0
   35.2860   18.7220   32.8330 C   0  0  0  0  0  0  0  0  0  0  0  0
   34.4060   19.0320   33.3920 H   0  0  0  0  0  0  0  0  0  0  0  0
   35.3760   17.4340   32.3480 C   0  0  0  0  0  3  0  0  0  0  0  0
   36.5170   17.0620   31.6340 C   0  0  0  0  0  0  0  0  0  0  0  0
   36.5930   16.0540   31.2510 H   0  0  0  0  0  0  0  0  0  0  0  0
   37.5660   17.9470   31.3960 C   0  0  0  0  0  0  0  0  0  0  0  0
   38.4390   17.5960   30.8260 H   0  0  0  0  0  0  0  0  0  0  0  0
   37.4770   19.2420   31.8820 C   0  0  0  0  0  3  0  0  0  0  0  0
  1  8  1  0  0  0  0
  2  6  1  0  0  0  0
  2  1  2  0  0  0  0
  3  2  1  0  0  0  0
  4  3  2  0  0  0  0
  4  5  1  0  0  0  0
  5 17  1  0  0  0  0
  5  1  1  0  0  0  0
  7  4  1  0  0  0  0
  8  9  2  0  0  0  0
  8 13  1  0  0  0  0
  9 10  1  0  0  0  0
 10 15  1  0  0  0  0
 10 11  2  0  0  0  0
 12 11  1  0  0  0  0
 12 16  1  0  0  0  0
 13 12  2  0  0  0  0
 14  9  1  0  0  0  0
 17 20  1  1  0  0  0
 17 18  1  0  0  0  0
 18 22  1  0  0  0  0
 18 21  1  0  0  0  0
 19 23  1  6  0  0  0
 19 17  1  0  0  0  0
 19 18  1  0  0  0  0
 24 25  1  0  0  0  0
 24 19  1  0  0  0  0
 25 26  1  0  0  0  0
 27 25  2  0  0  0  0
 28 27  1  0  0  0  0
 29 28  1  0  0  0  0
 30 28  2  0  0  0  0
 30 32  1  0  0  0  0
 31 30  1  0  0  0  0
 32 24  2  0  0  0  0
M  END
>  <minimizedAffinity>
-5.12464142

>  <minimizedRMSD>
0.905184507

$$$$
