REMARK  Name = 
REMARK  3 active torsions:
REMARK  status: ('A' for Active; 'I' for Inactive)
REMARK    1  A    between atoms: C_1  and  C_6
REMARK    2  A    between atoms: N_5  and  C_12
REMARK    3  A    between atoms: C_14  and  C_24
REMARK                            x       y       z     vdW  Elec       q    Type
REMARK                         _______ _______ _______ _____ _____    ______ ____
ROOT
ATOM      1  C   UNL     1      38.028  23.468  34.622  0.00  0.00    +0.000 A 
ATOM      2  C   UNL     1      38.265  24.567  33.797  0.00  0.00    +0.000 A 
ATOM      3  N   UNL     1      37.765  24.184  32.589  0.00  0.00    +0.000 NA
ATOM      4  C   UNL     1      37.278  22.952  32.720  0.00  0.00    +0.000 A 
ATOM      5  N   UNL     1      37.426  22.478  33.974  0.00  0.00    +0.000 N 
ATOM      6  H   UNL     1      38.749  25.480  34.143  0.00  0.00    +0.000 HD
ATOM      7  H   UNL     1      36.814  22.409  31.881  0.00  0.00    +0.000 HD
ENDROOT
BRANCH   1   8
ATOM      8  C   UNL     1      38.390  23.399  36.026  0.00  0.00    +0.000 A 
ATOM      9  C   UNL     1      39.597  22.796  36.423  0.00  0.00    +0.000 A 
ATOM     10  C   UNL     1      39.896  22.757  37.797  0.00  0.00    +0.000 A 
ATOM     11  N   UNL     1      39.011  23.298  38.654  0.00  0.00    +0.000 NA
ATOM     12  C   UNL     1      37.852  23.875  38.246  0.00  0.00    +0.000 A 
ATOM     13  N   UNL     1      37.545  23.923  36.940  0.00  0.00    +0.000 NA
ATOM     14  H   UNL     1      40.276  22.376  35.719  0.00  0.00    +0.000 HD
ATOM     15  H   UNL     1      40.795  22.315  38.184  0.00  0.00    +0.000 HD
ATOM     16  H   UNL     1      37.141  24.309  38.933  0.00  0.00    +0.000 HD
ENDBRANCH   1   8
BRANCH   5  17
ATOM     17  C   UNL     1      36.994  21.183  34.400  0.00  0.00    +0.000 C 
ATOM     18  C   UNL     1      35.845  20.963  35.258  0.00  0.00    +0.000 C 
ATOM     19  C   UNL     1      35.682  20.763  33.759  0.00  0.00    +0.000 C 
ATOM     20  H   UNL     1      37.816  20.451  34.460  0.00  0.00    +0.000 HD
ATOM     21  H   UNL     1      35.755  20.110  35.934  0.00  0.00    +0.000 HD
ATOM     22  H   UNL     1      35.350  21.892  35.663  0.00  0.00    +0.000 HD
ATOM     23  H   UNL     1      35.067  21.483  33.220  0.00  0.00    +0.000 HD
BRANCH  19  24
ATOM     24  C   UNL     1      35.490  19.352  33.343  0.00  0.00    +0.000 A 
ATOM     25  C   UNL     1      34.322  18.714  33.771  0.00  0.00    +0.000 A 
ATOM     26  H   UNL     1      33.582  19.226  34.382  0.00  0.00    +0.000 HD
ATOM     27  C   UNL     1      34.119  17.401  33.399  0.00  0.00    +0.000 A 
ATOM     28  C   UNL     1      35.085  16.768  32.614  0.00  0.00    +0.000 A 
ATOM     29  H   UNL     1      34.932  15.739  32.319  0.00  0.00    +0.000 HD
ATOM     30  C   UNL     1      36.245  17.416  32.196  0.00  0.00    +0.000 A 
ATOM     31  H   UNL     1      36.969  16.864  31.579  0.00  0.00    +0.000 HD
ATOM     32  C   UNL     1      36.450  18.735  32.569  0.00  0.00    +0.000 A 
ENDBRANCH  19  24
ENDBRANCH   5  17
TORSDOF 3
