
 OpenBabel03262519133D

 29 31  0  0  0  0  0  0  0  0999 V2000
   35.4090   24.9180   31.0370 C   0  0  0  0  0  0  0  0  0  0  0  0
   36.2860   24.2580   31.9020 C   0  0  0  0  0  0  0  0  0  0  0  0
   37.1640   25.0030   32.7000 C   0  0  0  0  0  0  0  0  0  0  0  0
   37.0950   26.3590   32.5710 N   0  0  0  0  0  0  0  0  0  0  0  0
   36.2150   26.9720   31.7040 C   0  0  0  0  0  0  0  0  0  0  0  0
   35.3950   26.2370   30.9610 N   0  0  0  0  0  0  0  0  0  0  0  0
   34.7610   24.2700   30.4520 H   0  0  0  0  0  0  0  0  0  0  0  0
   37.8740   24.5760   33.3960 H   0  0  0  0  0  0  0  0  0  0  0  0
   36.1920   28.4290   31.6130 C   0  0  0  0  0  0  0  0  0  0  0  0
   35.8000   29.1840   32.7030 C   0  0  0  0  0  0  0  0  0  0  0  0
   35.5210   28.6230   33.6030 H   0  0  0  0  0  0  0  0  0  0  0  0
   35.7550   30.5660   32.6870 C   0  0  0  0  0  0  0  0  0  0  0  0
   36.1310   31.1860   31.4930 C   0  0  0  0  0  0  0  0  0  0  0  0
   36.1060   32.2830   31.4440 H   0  0  0  0  0  0  0  0  0  0  0  0
   36.5290   30.4590   30.3800 C   0  0  0  0  0  0  0  0  0  0  0  0
   36.8040   31.0160   29.4940 H   0  0  0  0  0  0  0  0  0  0  0  0
   36.5590   29.0620   30.4420 C   0  0  0  0  0  0  0  0  0  0  0  0
   36.3810   22.8250   32.0430 C   0  0  0  0  0  0  0  0  0  0  0  0
   37.2810   22.1510   32.8690 C   0  0  0  0  0  0  0  0  0  0  0  0
   37.2270   20.7960   32.8830 C   0  0  0  0  0  0  0  0  0  0  0  0
   36.2760   20.1690   32.0690 C   0  0  0  0  0  0  0  0  0  0  0  0
   35.4130   21.5780   31.2410 S   0  0  0  0  0  0  0  0  0  0  0  0
   38.0010   22.6820   33.4820 H   0  0  0  0  0  0  0  0  0  0  0  0
   37.8240   20.1220   33.4410 H   0  0  0  0  0  0  0  0  0  0  0  0
   35.9200   18.8320   31.8180 C   0  0  0  0  0  0  0  0  0  0  0  0
   35.4130   18.1350   32.6920 O   0  0  0  0  0  0  0  0  0  0  0  0
   36.1370   18.2230   30.5280 N   0  0  0  0  0  0  0  0  0  0  0  0
   36.2560   17.8470   29.5610 H   0  0  0  0  0  0  0  0  0  0  0  0
   36.6280   17.3050   30.4870 H   0  0  0  0  0  0  0  0  0  0  0  0
  1  2  1  0  0  0  0
  2 18  1  0  0  0  0
  2  3  2  0  0  0  0
  3  8  1  0  0  0  0
  4  3  1  0  0  0  0
  5  4  2  0  0  0  0
  6  1  2  0  0  0  0
  6  5  1  0  0  0  0
  7  1  1  0  0  0  0
  9  5  1  0  0  0  0
  9 10  1  0  0  0  0
 10 11  1  0  0  0  0
 12 10  2  0  0  0  0
 13 12  1  0  0  0  0
 14 13  1  0  0  0  0
 15 17  1  0  0  0  0
 15 13  2  0  0  0  0
 16 15  1  0  0  0  0
 17  9  2  0  0  0  0
 18 19  2  0  0  0  0
 19 20  1  0  0  0  0
 19 23  1  0  0  0  0
 20 24  1  0  0  0  0
 21 20  2  0  0  0  0
 22 18  1  0  0  0  0
 22 21  1  0  0  0  0
 25 21  1  0  0  0  0
 25 26  2  0  0  0  0
 27 25  1  0  0  0  0
 28 27  1  0  0  0  0
 29 27  1  0  0  0  0
M  END
>  <minimizedAffinity>
-4.87631226

>  <minimizedRMSD>
9.37528801

$$$$
