
 OpenBabel03262519223D

 29 32  0  0  0  0  0  0  0  0999 V2000
   37.6970   24.8790   33.6850 C   0  0  0  0  0  0  0  0  0  0  0  0
   37.8810   25.3210   35.0130 C   0  0  0  0  0  0  0  0  0  0  0  0
   37.6410   26.6470   35.2930 C   0  0  0  0  0  0  0  0  0  0  0  0
   37.2400   27.4910   34.3090 N   0  0  0  0  0  0  0  0  0  0  0  0
   37.0680   27.0490   33.0380 C   0  0  0  0  0  0  0  0  0  0  0  0
   37.2940   25.7710   32.7440 N   0  0  0  0  0  0  0  0  0  0  0  0
   37.7800   27.0010   36.3170 H   0  0  0  0  0  0  0  0  0  0  0  0
   36.7470   27.8260   32.3580 H   0  0  0  0  0  0  0  0  0  0  0  0
   38.2930   24.4230   35.9850 N   0  0  0  0  0  0  0  0  0  0  0  0
   37.5210   23.9050   36.9700 C   0  0  0  0  0  0  0  0  0  0  0  0
   38.2120   23.0610   37.7510 N   0  0  0  0  0  0  0  0  0  0  0  0
   39.4700   23.0290   37.2590 C   0  0  0  0  0  0  0  0  0  0  0  0
   40.6240   22.3720   37.6100 C   0  0  0  0  0  0  0  0  0  0  0  0
   41.7860   22.4970   36.9640 N   0  0  0  0  0  0  0  0  0  0  0  0
   41.7830   23.3360   35.9020 C   0  0  0  0  0  0  0  0  0  0  0  0
   40.6650   23.9800   35.5510 N   0  0  0  0  0  0  0  0  0  0  0  0
   39.4890   23.8760   36.1750 C   0  0  0  0  0  0  0  0  0  0  0  0
   36.4690   24.1040   37.1630 H   0  0  0  0  0  0  0  0  0  0  0  0
   40.6190   21.7000   38.4640 H   0  0  0  0  0  0  0  0  0  0  0  0
   42.6740   23.5200   35.2960 H   0  0  0  0  0  0  0  0  0  0  0  0
   37.9210   23.5050   33.2540 C   0  0  0  0  0  0  0  0  0  0  0  0
   37.2110   22.3570   33.5060 C   0  0  0  0  0  0  0  0  0  0  0  0
   36.3440   22.5330   34.1260 H   0  0  0  0  0  0  0  0  0  0  0  0
   37.6290   21.1560   32.9840 C   0  0  0  0  0  0  0  0  0  0  0  0
   38.7530   21.0300   32.1990 C   0  0  0  0  0  0  0  0  0  0  0  0
   38.9430   20.0300   31.8710 H   0  0  0  0  0  0  0  0  0  0  0  0
   39.4820   22.1550   31.9290 C   0  0  0  0  0  0  0  0  0  0  0  0
   40.3480   22.0440   31.3200 H   0  0  0  0  0  0  0  0  0  0  0  0
   39.0600   23.3520   32.4530 C   0  0  0  0  0  0  0  0  0  0  0  0
  1  2  1  0  0  0  0
  2  3  2  0  0  0  0
  2  9  1  0  0  0  0
  3  7  1  0  0  0  0
  4  3  1  0  0  0  0
  5  4  2  0  0  0  0
  6  5  1  0  0  0  0
  6  1  2  0  0  0  0
  8  5  1  0  0  0  0
  9 17  1  0  0  0  0
  9 10  1  0  0  0  0
 10 18  1  0  0  0  0
 10 11  2  0  0  0  0
 12 13  1  0  0  0  0
 12 11  1  0  0  0  0
 13 19  1  0  0  0  0
 14 13  2  0  0  0  0
 15 14  1  0  0  0  0
 16 15  2  0  0  0  0
 16 17  1  0  0  0  0
 17 12  2  0  0  0  0
 20 15  1  0  0  0  0
 21 22  1  0  0  0  0
 21  1  1  0  0  0  0
 22 23  1  0  0  0  0
 24 22  2  0  0  0  0
 25 24  1  0  0  0  0
 26 25  1  0  0  0  0
 27 25  2  0  0  0  0
 27 29  1  0  0  0  0
 28 27  1  0  0  0  0
 29 21  2  0  0  0  0
M  END
>  <minimizedAffinity>
-4.67195749

>  <minimizedRMSD>
1.25632763

$$$$
