
 OpenBabel03262513023D

 48 52  0  0  1  0  0  0  0  0999 V2000
   38.0460   27.7260   31.8970 C   0  0  1  0  0  0  0  0  0  0  0  0
   37.9360   28.8080   31.9250 H   0  0  0  0  0  0  0  0  0  0  0  0
   38.2310   25.7730   34.8310 C   0  0  0  0  0  0  0  0  0  0  0  0
   37.2020   26.6310   35.1490 C   0  0  0  0  0  0  0  0  0  0  0  0
   36.9330   27.5080   34.1440 C   0  0  0  0  0  0  0  0  0  0  0  0
   37.8060   27.1860   33.2000 N   0  0  0  0  0  0  0  0  0  0  0  0
   38.5650   26.1780   33.5890 N   0  0  0  0  0  0  0  0  0  0  0  0
   36.6710   26.5900   36.1150 H   0  0  0  0  0  0  0  0  0  0  0  0
   36.2010   28.2970   34.0710 H   0  0  0  0  0  0  0  0  0  0  0  0
   40.0640   23.0840   36.2500 C   0  0  0  0  0  0  0  0  0  0  0  0
   39.1170   23.2900   37.2580 C   0  0  0  0  0  0  0  0  0  0  0  0
   38.3450   24.3170   36.8230 N   0  0  0  0  0  0  0  0  0  0  0  0
   38.8280   24.6830   35.6140 C   0  0  0  0  0  0  0  0  0  0  0  0
   39.8560   23.9630   35.2460 N   0  0  0  0  0  0  0  0  0  0  0  0
   38.9900   22.7820   38.1820 H   0  0  0  0  0  0  0  0  0  0  0  0
   40.3980   24.0580   34.3560 H   0  0  0  0  0  0  0  0  0  0  0  0
   42.4310   20.5330   37.5590 C   0  0  0  0  0  0  0  0  0  0  0  0
   41.4280   21.5090   37.5710 C   0  0  0  0  0  0  0  0  0  0  0  0
   41.1050   22.0530   36.3140 C   0  0  0  0  0  0  0  0  0  0  0  0
   41.7620   21.6240   35.1570 N   0  0  0  0  0  0  0  0  0  0  0  0
   42.7150   20.6750   35.2680 C   0  0  0  0  0  0  0  0  0  0  0  0
   43.0390   20.1460   36.4320 N   0  0  0  0  0  0  0  0  0  0  0  0
   42.7090   20.0880   38.5040 H   0  0  0  0  0  0  0  0  0  0  0  0
   40.9120   21.8510   38.4470 H   0  0  0  0  0  0  0  0  0  0  0  0
   43.1050   20.4790   34.2680 H   0  0  0  0  0  0  0  0  0  0  0  0
   39.4890   27.4050   31.4800 C   0  0  0  0  0  0  0  0  0  0  0  0
   39.8850   26.5470   32.0020 H   0  0  0  0  0  0  0  0  0  0  0  0
   40.0550   28.2650   31.9810 H   0  0  0  0  0  0  0  0  0  0  0  0
   39.6880   27.5740   30.4370 H   0  0  0  0  0  0  0  0  0  0  0  0
   37.1820   27.1930   30.8360 C   0  0  0  0  0  0  0  0  0  0  0  0
   37.8750   27.1050   29.9300 H   0  0  0  0  0  0  0  0  0  0  0  0
   36.5190   28.0140   30.5260 H   0  0  0  0  0  0  0  0  0  0  0  0
   36.5430   25.9620   30.9210 N   0  0  0  0  0  0  0  0  0  0  0  0
   35.1900   25.8510   31.0850 C   0  0  0  0  0  0  0  0  0  0  0  0
   34.7830   24.5430   31.1260 C   0  0  0  0  0  0  0  0  0  0  0  0
   35.9300   23.8190   30.9830 N   0  0  0  0  0  0  0  0  0  0  0  0
   36.9160   24.6990   30.8670 C   0  0  0  0  0  0  0  0  0  0  0  0
   34.4780   26.6900   31.1770 H   0  0  0  0  0  0  0  0  0  0  0  0
   33.7330   24.2290   31.2510 H   0  0  0  0  0  0  0  0  0  0  0  0
   38.1710   23.9980   30.6710 C   0  0  0  0  0  0  0  0  0  0  0  0
   38.9590   23.9830   29.5370 C   0  0  0  0  0  0  0  0  0  0  0  0
   38.5780   24.5950   28.7030 H   0  0  0  0  0  0  0  0  0  0  0  0
   40.1280   23.2590   29.4450 C   0  0  0  0  0  0  0  0  0  0  0  0
   40.5720   22.5040   30.5090 C   0  0  0  0  0  0  0  0  0  0  0  0
   41.4880   21.9320   30.4510 H   0  0  0  0  0  0  0  0  0  0  0  0
   39.8560   22.4540   31.6880 C   0  0  0  0  0  0  0  0  0  0  0  0
   40.1280   21.8970   32.5530 H   0  0  0  0  0  0  0  0  0  0  0  0
   38.6990   23.2030   31.6990 C   0  0  0  0  0  0  0  0  0  0  0  0
  1  2  1  1  0  0  0
  1  6  1  0  0  0  0
  3  4  1  0  0  0  0
  3 13  1  0  0  0  0
  4  8  1  0  0  0  0
  5  4  2  0  0  0  0
  6  7  1  0  0  0  0
  6  5  1  0  0  0  0
  7  3  2  0  0  0  0
  9  5  1  0  0  0  0
 10 19  1  0  0  0  0
 10 11  2  0  0  0  0
 11 15  1  0  0  0  0
 12 11  1  0  0  0  0
 13 12  2  0  0  0  0
 14 13  1  0  0  0  0
 14 10  1  0  0  0  0
 16 14  1  0  0  0  0
 17 18  1  0  0  0  0
 17 23  1  0  0  0  0
 18 24  1  0  0  0  0
 19 18  2  0  0  0  0
 20 21  2  0  0  0  0
 20 19  1  0  0  0  0
 21 22  1  0  0  0  0
 22 17  2  0  0  0  0
 25 21  1  0  0  0  0
 26  1  1  0  0  0  0
 26 28  1  0  0  0  0
 26 27  1  0  0  0  0
 29 26  1  0  0  0  0
 30 33  1  0  0  0  0
 30  1  1  0  0  0  0
 31 30  1  0  0  0  0
 32 30  1  0  0  0  0
 33 34  1  0  0  0  0
 34 35  2  0  0  0  0
 34 38  1  0  0  0  0
 35 39  1  0  0  0  0
 36 35  1  0  0  0  0
 37 33  1  0  0  0  0
 37 36  2  0  0  0  0
 40 37  1  0  0  0  0
 40 48  1  0  0  0  0
 41 40  2  0  0  0  0
 42 41  1  0  0  0  0
 43 41  1  0  0  0  0
 43 44  2  0  0  0  0
 44 46  1  0  0  0  0
 45 44  1  0  0  0  0
 46 48  2  0  0  0  0
 46 47  1  0  0  0  0
M  END
>  <minimizedAffinity>
-5.2208581

>  <minimizedRMSD>
1.32733727

$$$$
