
 OpenBabel03262518553D

 28 30  0  0  0  0  0  0  0  0999 V2000
   39.8650   22.6990   37.3300 C   0  0  0  0  0  0  0  0  0  0  0  0
   39.1240   23.2310   38.4150 C   0  0  0  0  0  0  0  0  0  0  0  0
   37.7300   23.3020   38.2570 C   0  0  0  0  0  0  0  0  0  0  0  0
   37.1660   22.8680   37.0980 N   0  0  0  0  0  0  0  0  0  0  0  0
   37.9320   22.3620   36.0830 C   0  0  0  0  0  0  0  0  0  0  0  0
   39.2790   22.2710   36.1820 N   0  0  0  0  0  0  0  0  0  0  0  0
   37.3550   21.9040   34.8650 N   0  0  0  0  0  0  0  0  0  0  0  0
   38.0170   22.2430   33.7190 C   0  0  0  0  0  0  0  0  0  0  0  0
   37.4970   21.8220   32.5180 C   0  0  0  0  0  0  0  0  0  0  0  0
   36.3110   21.0660   32.5310 C   0  0  0  0  0  0  0  0  0  0  0  0
   35.8140   20.6680   31.4430 O   0  0  0  0  0  0  0  0  0  0  0  0
   35.7060   20.7630   33.6840 N   0  0  0  0  0  0  0  0  0  0  0  0
   36.2260   21.1830   34.8680 C   0  0  0  0  0  0  0  0  0  0  0  0
   35.7190   20.9390   35.9810 O   0  0  0  0  0  0  0  0  0  0  0  0
   40.9540   22.5970   37.3460 H   0  0  0  0  0  0  0  0  0  0  0  0
   39.6600   23.5440   39.2800 H   0  0  0  0  0  0  0  0  0  0  0  0
   37.1590   23.7040   39.0740 H   0  0  0  0  0  0  0  0  0  0  0  0
   38.9320   22.8300   33.7400 H   0  0  0  0  0  0  0  0  0  0  0  0
   34.8130   20.1960   33.7290 H   0  0  0  0  0  0  0  0  0  0  0  0
   38.1770   22.1670   31.3000 C   0  0  0  0  0  0  0  0  0  0  0  0
   38.9540   21.2270   30.6510 C   0  0  0  0  0  0  0  0  0  0  0  0
   39.0450   20.2320   31.0690 H   0  0  0  0  0  0  0  0  0  0  0  0
   39.5710   21.6530   29.4820 C   0  0  0  0  0  0  0  0  0  0  0  0
   39.4200   22.9330   28.9950 C   0  0  0  0  0  0  0  0  0  0  0  0
   39.9350   23.2030   28.0650 H   0  0  0  0  0  0  0  0  0  0  0  0
   38.6380   23.8290   29.6740 C   0  0  0  0  0  0  0  0  0  0  0  0
   38.5120   24.8520   29.2930 H   0  0  0  0  0  0  0  0  0  0  0  0
   37.9960   23.4630   30.8480 C   0  0  0  0  0  0  0  0  0  0  0  0
  1 15  1  0  0  0  0
  1  2  1  0  0  0  0
  2 16  1  0  0  0  0
  3  2  2  0  0  0  0
  3 17  1  0  0  0  0
  4  3  1  0  0  0  0
  5  6  1  0  0  0  0
  5  4  2  0  0  0  0
  6  1  2  0  0  0  0
  7 13  1  0  0  0  0
  7  5  1  0  0  0  0
  8 18  1  0  0  0  0
  8  7  1  0  0  0  0
  9 10  1  0  0  0  0
  9  8  2  0  0  0  0
 10 12  1  0  0  0  0
 11 10  2  0  0  0  0
 12 19  1  0  0  0  0
 12 13  1  0  0  0  0
 13 14  2  0  0  0  0
 20  9  1  0  0  0  0
 21 22  1  0  0  0  0
 21 20  2  0  0  0  0
 23 21  1  0  0  0  0
 24 23  2  0  0  0  0
 24 26  1  0  0  0  0
 25 24  1  0  0  0  0
 26 28  2  0  0  0  0
 27 26  1  0  0  0  0
 28 20  1  0  0  0  0
M  END
>  <minimizedAffinity>
-5.15222073

>  <minimizedRMSD>
0.870524824

$$$$
