
 OpenBabel03262520003D

 35 38  0  0  1  0  0  0  0  0999 V2000
   40.0490   23.2440   34.4300 C   0  0  1  0  0  0  0  0  0  0  0  0
   40.6450   24.1410   35.3810 C   0  0  0  0  0  0  0  0  0  0  0  0
   39.1020   23.9510   35.3350 C   0  0  1  0  0  0  0  0  0  0  0  0
   40.2210   22.1340   34.6550 H   0  0  0  0  0  0  0  0  0  0  0  0
   41.1470   23.7930   36.2970 H   0  0  0  0  0  0  0  0  0  0  0  0
   40.9890   25.1360   35.0680 H   0  0  0  0  0  0  0  0  0  0  0  0
   38.5090   25.3140   35.1840 C   0  0  0  0  0  0  0  0  0  0  0  0
   37.6040   25.3780   34.1270 C   0  0  0  0  0  0  0  0  0  0  0  0
   37.2690   24.6330   33.4210 H   0  0  0  0  0  0  0  0  0  0  0  0
   36.9580   26.5860   33.8520 C   0  0  0  0  0  3  0  0  0  0  0  0
   37.2170   27.7110   34.6240 C   0  0  0  0  0  0  0  0  0  0  0  0
   36.7530   28.6650   34.4600 H   0  0  0  0  0  0  0  0  0  0  0  0
   38.1110   27.6220   35.6570 C   0  0  0  0  0  0  0  0  0  0  0  0
   38.3430   28.4790   36.2890 H   0  0  0  0  0  0  0  0  0  0  0  0
   38.7420   26.4500   35.9310 C   0  0  0  0  0  3  0  0  0  0  0  0
   40.3830   24.3660   32.2200 C   0  0  0  0  0  0  0  0  0  0  0  0
   39.8810   24.2270   30.9280 C   0  0  0  0  0  0  0  0  0  0  0  0
   39.0040   23.1830   31.0370 N   0  0  0  0  0  0  0  0  0  0  0  0
   39.0170   22.7700   32.3010 C   0  0  0  0  0  0  0  0  0  0  0  0
   39.8560   23.4810   33.0480 N   0  0  0  0  0  0  0  0  0  0  0  0
   40.1560   24.8320   30.0720 H   0  0  0  0  0  0  0  0  0  0  0  0
   38.3420   21.9280   32.4930 H   0  0  0  0  0  0  0  0  0  0  0  0
   41.3740   25.3590   32.6130 C   0  0  0  0  0  0  0  0  0  0  0  0
   42.7420   25.0090   32.6240 C   0  0  0  0  0  0  0  0  0  0  0  0
   43.6670   26.0030   33.0090 C   0  0  0  0  0  0  0  0  0  0  0  0
   43.1770   27.2260   33.3420 N   0  0  0  0  0  0  0  0  0  0  0  0
   41.8580   27.5190   33.3180 C   0  0  0  0  0  0  0  0  0  0  0  0
   40.9530   26.5920   32.9560 N   0  0  0  0  0  0  0  0  0  0  0  0
   42.9750   23.9960   32.3330 H   0  0  0  0  0  0  0  0  0  0  0  0
   44.6910   25.7150   33.0090 H   0  0  0  0  0  0  0  0  0  0  0  0
   41.6260   28.5340   33.6100 H   0  0  0  0  0  0  0  0  0  0  0  0
   38.6110   23.1940   36.5540 C   0  0  0  0  0  0  0  0  0  0  0  0
   37.2310   23.1420   36.5500 F   0  0  0  0  0  0  0  0  0  0  0  0
   39.0120   21.8020   36.4090 F   0  0  0  0  0  0  0  0  0  0  0  0
   39.1390   23.6200   37.7110 F   0  0  0  0  0  0  0  0  0  0  0  0
  1  4  1  1  0  0  0
  1  3  1  0  0  0  0
  1  2  1  0  0  0  0
  2  5  1  0  0  0  0
  3  2  1  0  0  0  0
  3 32  1  1  0  0  0
  6  2  1  0  0  0  0
  7  3  1  0  0  0  0
  7 15  1  0  0  0  0
  8  7  2  0  0  0  0
  9  8  1  0  0  0  0
 10  8  1  0  0  0  0
 10 11  2  0  0  0  0
 11 13  1  0  0  0  0
 12 11  1  0  0  0  0
 13 15  2  0  0  0  0
 13 14  1  0  0  0  0
 16 23  1  0  0  0  0
 16 20  1  0  0  0  0
 17 18  1  0  0  0  0
 17 16  2  0  0  0  0
 18 19  2  0  0  0  0
 19 22  1  0  0  0  0
 19 20  1  0  0  0  0
 20  1  1  0  0  0  0
 21 17  1  0  0  0  0
 23 24  2  0  0  0  0
 23 28  1  0  0  0  0
 24 25  1  0  0  0  0
 25 30  1  0  0  0  0
 25 26  2  0  0  0  0
 27 26  1  0  0  0  0
 27 31  1  0  0  0  0
 28 27  2  0  0  0  0
 29 24  1  0  0  0  0
 32 35  1  0  0  0  0
 33 32  1  0  0  0  0
 34 32  1  0  0  0  0
M  END
>  <minimizedAffinity>
-4.46375561

>  <minimizedRMSD>
3.78053069

$$$$
