
 OpenBabel03262519583D

 32 35  0  0  1  0  0  0  0  0999 V2000
   37.8790   22.6220   34.3840 C   0  0  0  0  0  0  0  0  0  0  0  0
   38.2760   22.5100   35.7160 C   0  0  0  0  0  0  0  0  0  0  0  0
   38.6560   23.7740   36.0530 N   0  0  0  0  0  0  0  0  0  0  0  0
   38.4860   24.5500   34.9840 C   0  0  0  0  0  0  0  0  0  0  0  0
   38.0030   23.8630   33.9290 N   0  0  0  0  0  0  0  0  0  0  0  0
   38.2480   21.5720   36.2710 H   0  0  0  0  0  0  0  0  0  0  0  0
   38.7220   25.6260   34.9930 H   0  0  0  0  0  0  0  0  0  0  0  0
   37.3850   21.5210   33.5770 C   0  0  0  0  0  0  0  0  0  0  0  0
   38.2060   20.9250   32.6040 C   0  0  0  0  0  0  0  0  0  0  0  0
   37.6750   19.8620   31.8510 C   0  0  0  0  0  0  0  0  0  0  0  0
   36.4110   19.4770   32.1030 N   0  0  0  0  0  0  0  0  0  0  0  0
   35.6370   20.0690   33.0480 C   0  0  0  0  0  0  0  0  0  0  0  0
   36.1220   21.0850   33.7790 N   0  0  0  0  0  0  0  0  0  0  0  0
   39.2030   21.2540   32.4290 H   0  0  0  0  0  0  0  0  0  0  0  0
   38.2340   19.3530   31.0890 H   0  0  0  0  0  0  0  0  0  0  0  0
   34.6220   19.7600   33.2510 H   0  0  0  0  0  0  0  0  0  0  0  0
   37.7230   24.4420   32.6520 C   0  0  1  0  0  0  0  0  0  0  0  0
   36.4010   24.4700   32.0560 C   0  0  0  0  0  0  0  0  0  0  0  0
   36.9090   25.7210   32.7550 C   0  0  2  0  0  0  0  0  0  0  0  0
   38.5860   24.4130   31.9660 H   0  0  0  0  0  0  0  0  0  0  0  0
   36.2290   24.4800   30.9770 H   0  0  0  0  0  0  0  0  0  0  0  0
   35.5980   23.9130   32.6180 H   0  0  0  0  0  0  0  0  0  0  0  0
   36.4280   26.0050   33.6900 H   0  0  0  0  0  0  0  0  0  0  0  0
   37.2110   26.8550   31.8460 C   0  0  0  0  0  0  0  0  0  0  0  0
   38.5230   26.9690   31.3810 C   0  0  0  0  0  0  0  0  0  0  0  0
   39.2960   26.2600   31.6690 H   0  0  0  0  0  0  0  0  0  0  0  0
   38.8300   28.0150   30.5340 C   0  0  0  0  0  3  0  0  0  0  0  0
   37.8190   28.9110   30.1800 C   0  0  0  0  0  0  0  0  0  0  0  0
   38.0530   29.7330   29.5170 H   0  0  0  0  0  0  0  0  0  0  0  0
   36.5150   28.7850   30.6520 C   0  0  0  0  0  0  0  0  0  0  0  0
   35.7620   29.5230   30.3360 H   0  0  0  0  0  0  0  0  0  0  0  0
   36.2060   27.7340   31.5030 C   0  0  0  0  0  3  0  0  0  0  0  0
  1  2  2  0  0  0  0
  2  3  1  0  0  0  0
  2  6  1  0  0  0  0
  4  7  1  0  0  0  0
  4  3  2  0  0  0  0
  5  1  1  0  0  0  0
  5  4  1  0  0  0  0
  8 13  1  0  0  0  0
  8  1  1  0  0  0  0
  9  8  2  0  0  0  0
 10 11  2  0  0  0  0
 10  9  1  0  0  0  0
 11 12  1  0  0  0  0
 12 16  1  0  0  0  0
 12 13  2  0  0  0  0
 14  9  1  0  0  0  0
 15 10  1  0  0  0  0
 17 20  1  6  0  0  0
 17 19  1  0  0  0  0
 17  5  1  0  0  0  0
 18 22  1  0  0  0  0
 18 17  1  0  0  0  0
 18 19  1  0  0  0  0
 19 23  1  1  0  0  0
 21 18  1  0  0  0  0
 24 19  1  0  0  0  0
 25 26  1  0  0  0  0
 25 24  2  0  0  0  0
 27 25  1  0  0  0  0
 28 27  2  0  0  0  0
 28 30  1  0  0  0  0
 29 28  1  0  0  0  0
 30 32  2  0  0  0  0
 31 30  1  0  0  0  0
 32 24  1  0  0  0  0
M  END
>  <minimizedAffinity>
-4.38007021

>  <minimizedRMSD>
6.9445014

$$$$
