REMARK  Name = 
REMARK  5 active torsions:
REMARK  status: ('A' for Active; 'I' for Inactive)
REMARK    1  A    between atoms: C_1  and  C_6
REMARK    2  A    between atoms: N_5  and  C_12
REMARK    3  A    between atoms: C_14  and  C_15
REMARK    4  A    between atoms: C_14  and  C_34
REMARK    5  A    between atoms: S_28  and  C_31
REMARK                            x       y       z     vdW  Elec       q    Type
REMARK                         _______ _______ _______ _____ _____    ______ ____
ROOT
ATOM      1  C   UNL     1      38.544  23.944  35.898  0.00  0.00    +0.000 C 
ATOM      2  C   UNL     1      38.104  25.230  36.363  0.00  0.00    +0.000 C 
ATOM      3  C   UNL     1      37.558  23.923  37.026  0.00  0.00    +0.000 C 
ATOM      4  H   UNL     1      39.607  23.602  36.180  0.00  0.00    +0.000 HD
ATOM      5  H   UNL     1      38.820  25.813  36.976  0.00  0.00    +0.000 HD
ATOM      6  H   UNL     1      37.424  25.873  35.810  0.00  0.00    +0.000 HD
ENDROOT
BRANCH   1  11
ATOM      7  C   UNL     1      37.868  23.699  33.500  0.00  0.00    +0.000 A 
ATOM      8  C   UNL     1      37.464  22.657  32.668  0.00  0.00    +0.000 A 
ATOM      9  N   UNL     1      37.489  21.561  33.486  0.00  0.00    +0.000 NA
ATOM     10  C   UNL     1      37.879  21.965  34.692  0.00  0.00    +0.000 A 
ATOM     11  N   UNL     1      38.117  23.271  34.728  0.00  0.00    +0.000 N 
ATOM     12  H   UNL     1      37.208  22.797  31.609  0.00  0.00    +0.000 HD
ATOM     13  H   UNL     1      37.934  21.167  35.427  0.00  0.00    +0.000 HD
BRANCH   7  14
ATOM     14  C   UNL     1      38.010  25.082  33.078  0.00  0.00    +0.000 A 
ATOM     15  C   UNL     1      39.293  25.587  32.769  0.00  0.00    +0.000 A 
ATOM     16  C   UNL     1      39.388  26.934  32.358  0.00  0.00    +0.000 A 
ATOM     17  N   UNL     1      38.236  27.653  32.289  0.00  0.00    +0.000 NA
ATOM     18  C   UNL     1      37.026  27.130  32.594  0.00  0.00    +0.000 A 
ATOM     19  N   UNL     1      36.909  25.849  32.988  0.00  0.00    +0.000 NA
ATOM     20  H   UNL     1      40.158  24.945  32.851  0.00  0.00    +0.000 HD
ATOM     21  H   UNL     1      40.356  27.348  32.115  0.00  0.00    +0.000 HD
ATOM     22  H   UNL     1      36.216  27.832  32.487  0.00  0.00    +0.000 HD
ENDBRANCH   7  14
ENDBRANCH   1  11
BRANCH   3  26
ATOM     23  C   UNL     1      33.312  24.413  36.674  0.00  0.00    +0.000 A 
ATOM     24  C   UNL     1      33.819  23.172  36.962  0.00  0.00    +0.000 A 
ATOM     25  C   UNL     1      35.173  22.949  37.088  0.00  0.00    +0.000 A 
ATOM     26  C   UNL     1      36.066  23.987  36.925  0.00  0.00    +0.000 A 
ATOM     27  C   UNL     1      35.571  25.244  36.634  0.00  0.00    +0.000 A 
ATOM     28  C   UNL     1      34.207  25.469  36.507  0.00  0.00    +0.000 A 
BRANCH  23  30
ATOM     29  H   UNL     1      31.005  23.655  35.747  0.00  0.00    +0.000 HD
ATOM     30  S   UNL     1      31.576  24.627  36.528  0.00  0.00    +0.000 S 
ATOM     31  O   UNL     1      31.285  26.007  36.027  0.00  0.00    +0.000 OA
ATOM     32  O   UNL     1      30.922  24.544  37.897  0.00  0.00    +0.000 OA
ENDBRANCH  23  30
ENDBRANCH   3  26
BRANCH   3  33
ATOM     33  C   UNL     1      38.115  23.766  38.425  0.00  0.00    +0.000 C 
ATOM     34  F   UNL     1      37.500  22.712  39.065  0.00  0.00    +0.000 F 
ATOM     35  F   UNL     1      39.504  23.334  38.308  0.00  0.00    +0.000 F 
ATOM     36  F   UNL     1      38.144  24.901  39.140  0.00  0.00    +0.000 F 
ENDBRANCH   3  33
TORSDOF 5
