
 OpenBabel03262519583D

 33 36  0  0  1  0  0  0  0  0999 V2000
   37.8750   22.7200   33.3370 C   0  0  1  0  0  0  0  0  0  0  0  0
   37.0300   21.7020   33.9350 C   0  0  0  0  0  0  0  0  0  0  0  0
   36.6910   22.2130   32.5420 C   0  0  2  0  0  0  0  0  0  0  0  0
   38.8970   22.4270   33.0090 H   0  0  0  0  0  0  0  0  0  0  0  0
   36.3070   22.0490   34.7180 H   0  0  0  0  0  0  0  0  0  0  0  0
   37.3450   20.6680   34.0860 H   0  0  0  0  0  0  0  0  0  0  0  0
   35.7910   22.8100   32.4020 H   0  0  0  0  0  0  0  0  0  0  0  0
   37.9910   24.7990   34.7820 C   0  0  0  0  0  0  0  0  0  0  0  0
   37.7520   26.1600   34.6270 C   0  0  0  0  0  0  0  0  0  0  0  0
   37.3650   26.2690   33.3260 N   0  0  0  0  0  0  0  0  0  0  0  0
   37.3790   25.0700   32.7780 C   0  0  0  0  0  0  0  0  0  0  0  0
   37.7680   24.1150   33.6600 N   0  0  0  0  0  0  0  0  0  0  0  0
   37.8790   26.8760   35.4270 H   0  0  0  0  0  0  0  0  0  0  0  0
   37.0920   24.9930   31.7380 H   0  0  0  0  0  0  0  0  0  0  0  0
   38.4380   24.1670   36.0260 C   0  0  0  0  0  0  0  0  0  0  0  0
   39.6830   23.5450   36.0950 C   0  0  0  0  0  0  0  0  0  0  0  0
   40.0720   22.9500   37.3140 C   0  0  0  0  0  0  0  0  0  0  0  0
   39.2010   23.0260   38.3400 N   0  0  0  0  0  0  0  0  0  0  0  0
   37.9970   23.6350   38.2500 C   0  0  0  0  0  0  0  0  0  0  0  0
   37.5980   24.2130   37.0950 N   0  0  0  0  0  0  0  0  0  0  0  0
   40.2950   23.5440   35.2170 H   0  0  0  0  0  0  0  0  0  0  0  0
   41.0310   22.4740   37.3570 H   0  0  0  0  0  0  0  0  0  0  0  0
   37.3270   23.6720   39.1010 H   0  0  0  0  0  0  0  0  0  0  0  0
   37.5440   19.4890   29.3580 C   0  0  0  0  0  0  0  0  0  0  0  0
   38.4860   20.4450   29.6840 C   0  0  0  0  0  3  0  0  0  0  0  0
   38.1440   21.2810   30.7140 C   0  0  0  0  0  3  0  0  0  0  0  0
   36.9650   21.2440   31.4290 C   0  0  0  0  0  0  0  0  0  0  0  0
   36.0360   20.2690   31.0760 C   0  0  0  0  0  3  0  0  0  0  0  0
   36.3550   19.4110   30.0400 C   0  0  0  0  0  3  0  0  0  0  0  0
   36.8660   17.5350   27.9020 H   0  0  0  0  0  0  0  0  0  0  0  0
   37.9160   18.3820   28.0480 S   0  0  0  0  0  0  0  0  0  0  0  0
   38.0790   19.1820   26.7750 O   0  0  0  0  0  0  0  0  0  0  0  0
   39.1940   17.6360   28.3130 O   0  0  0  0  0  0  0  0  0  0  0  0
  1  4  1  6  0  0  0
  1 12  1  0  0  0  0
  1  2  1  0  0  0  0
  2  6  1  0  0  0  0
  2  5  1  0  0  0  0
  3  7  1  6  0  0  0
  3  1  1  0  0  0  0
  3  2  1  0  0  0  0
  8 15  1  0  0  0  0
  9  8  2  0  0  0  0
  9 13  1  0  0  0  0
 10  9  1  0  0  0  0
 11 10  2  0  0  0  0
 11 12  1  0  0  0  0
 12  8  1  0  0  0  0
 14 11  1  0  0  0  0
 15 16  2  0  0  0  0
 15 20  1  0  0  0  0
 16 17  1  0  0  0  0
 17 22  1  0  0  0  0
 17 18  2  0  0  0  0
 19 18  1  0  0  0  0
 19 23  1  0  0  0  0
 20 19  2  0  0  0  0
 21 16  1  0  0  0  0
 24 25  2  0  0  0  0
 24 29  1  0  0  0  0
 25 26  1  0  0  0  0
 26 27  2  0  0  0  0
 27  3  1  0  0  0  0
 28 27  1  0  0  0  0
 29 28  2  0  0  0  0
 30 31  1  0  0  0  0
 31 33  2  0  0  0  0
 31 24  1  0  0  0  0
 32 31  2  0  0  0  0
M  END
>  <minimizedAffinity>
-4.75831556

>  <minimizedRMSD>
3.19010568

$$$$
