
 OpenBabel03262511433D

 32 34  0  0  1  0  0  0  0  0999 V2000
   38.7050   25.2780   34.4970 C   0  0  1  0  0  0  0  0  0  0  0  0
   37.3590   25.7360   34.1170 C   0  0  0  0  0  0  0  0  0  0  0  0
   37.5880   26.9460   33.2340 C   0  0  0  0  0  0  0  0  0  0  0  0
   39.0750   27.2150   33.2550 C   0  0  0  0  0  0  0  0  0  0  0  0
   39.5310   26.5390   34.5430 C   0  0  2  0  0  0  0  0  0  0  0  0
   39.0890   24.5610   33.7540 H   0  0  0  0  0  0  0  0  0  0  0  0
   36.7840   24.9550   33.5580 H   0  0  0  0  0  0  0  0  0  0  0  0
   36.7650   25.9890   35.0400 H   0  0  0  0  0  0  0  0  0  0  0  0
   37.0720   27.8080   33.7300 H   0  0  0  0  0  0  0  0  0  0  0  0
   37.2060   26.7500   32.2330 H   0  0  0  0  0  0  0  0  0  0  0  0
   39.2720   28.2930   33.2620 H   0  0  0  0  0  0  0  0  0  0  0  0
   39.6080   26.7180   32.4380 H   0  0  0  0  0  0  0  0  0  0  0  0
   39.2330   27.1250   35.4120 H   0  0  0  0  0  0  0  0  0  0  0  0
   39.4380   22.7490   37.0790 C   0  0  0  0  0  0  0  0  0  0  0  0
   38.8150   23.3030   38.2390 C   0  0  0  0  0  0  0  0  0  0  0  0
   38.1410   24.5350   38.1330 C   0  0  0  0  0  0  0  0  0  0  0  0
   38.1300   25.1290   36.9080 N   0  0  0  0  0  0  0  0  0  0  0  0
   38.7370   24.5680   35.8230 C   0  0  0  0  0  0  0  0  0  0  0  0
   39.3840   23.3850   35.9190 N   0  0  0  0  0  0  0  0  0  0  0  0
   39.9280   21.8020   37.2610 H   0  0  0  0  0  0  0  0  0  0  0  0
   38.8080   22.8570   39.2250 H   0  0  0  0  0  0  0  0  0  0  0  0
   37.6620   24.9760   38.9940 H   0  0  0  0  0  0  0  0  0  0  0  0
   43.7970   26.0460   34.4660 C   0  0  0  0  0  0  0  0  0  0  0  0
   43.0070   25.2050   35.2220 C   0  0  0  0  0  0  0  0  0  0  0  0
   41.6580   25.3770   35.2340 C   0  0  0  0  0  0  0  0  0  0  0  0
   40.9750   26.3520   34.5340 C   0  0  0  0  0  0  0  0  0  0  0  0
   41.7960   27.1940   33.7730 C   0  0  0  0  0  0  0  0  0  0  0  0
   43.1680   27.0400   33.7440 C   0  0  0  0  0  0  0  0  0  0  0  0
   46.0000   27.2600   34.6220 H   0  0  0  0  0  0  0  0  0  0  0  0
   45.5320   26.0030   34.3080 S   0  0  0  0  0  0  0  0  0  0  0  0
   45.9080   25.6160   32.9060 O   0  0  0  0  0  0  0  0  0  0  0  0
   46.1230   24.9990   35.2510 O   0  0  0  0  0  0  0  0  0  0  0  0
  1  6  1  6  0  0  0
  1  5  1  0  0  0  0
  1 18  1  0  0  0  0
  2  1  1  0  0  0  0
  2  8  1  0  0  0  0
  3  4  1  0  0  0  0
  3  9  1  0  0  0  0
  3  2  1  0  0  0  0
  4 11  1  0  0  0  0
  4  5  1  0  0  0  0
  5 13  1  1  0  0  0
  7  2  1  0  0  0  0
 10  3  1  0  0  0  0
 12  4  1  0  0  0  0
 14 20  1  0  0  0  0
 14 15  1  0  0  0  0
 15 21  1  0  0  0  0
 16 15  2  0  0  0  0
 16 22  1  0  0  0  0
 17 16  1  0  0  0  0
 18 19  1  0  0  0  0
 18 17  2  0  0  0  0
 19 14  2  0  0  0  0
 23 24  1  0  0  0  0
 24 25  2  0  0  0  0
 26  5  1  0  0  0  0
 26 25  1  0  0  0  0
 27 26  2  0  0  0  0
 28 27  1  0  0  0  0
 28 23  2  0  0  0  0
 30 23  1  0  0  0  0
 30 29  1  0  0  0  0
 30 32  2  0  0  0  0
 31 30  2  0  0  0  0
M  END
>  <minimizedAffinity>
-4.57051945

>  <minimizedRMSD>
1.09028101

$$$$
