
 OpenBabel03262519233D

 30 33  0  0  0  0  0  0  0  0999 V2000
   37.8210   24.7610   33.2390 C   0  0  0  0  0  0  0  0  0  0  0  0
   38.1990   25.2630   34.5010 C   0  0  0  0  0  0  0  0  0  0  0  0
   38.3110   26.6280   34.6410 C   0  0  0  0  0  0  0  0  0  0  0  0
   38.0570   27.4360   33.5750 N   0  0  0  0  0  0  0  0  0  0  0  0
   37.6950   26.9310   32.3730 C   0  0  0  0  0  0  0  0  0  0  0  0
   37.5770   25.5970   32.2080 N   0  0  0  0  0  0  0  0  0  0  0  0
   38.6030   27.0530   35.6030 H   0  0  0  0  0  0  0  0  0  0  0  0
   37.5340   27.7150   31.6500 H   0  0  0  0  0  0  0  0  0  0  0  0
   38.4490   24.3920   35.5510 N   0  0  0  0  0  0  0  0  0  0  0  0
   37.5330   23.9200   36.4300 C   0  0  0  0  0  0  0  0  0  0  0  0
   38.0880   23.0890   37.3250 N   0  0  0  0  0  0  0  0  0  0  0  0
   39.4040   23.0220   37.0140 C   0  0  0  0  0  0  0  0  0  0  0  0
   40.4810   22.3530   37.5440 C   0  0  0  0  0  0  0  0  0  0  0  0
   41.7310   22.4370   37.0620 N   0  0  0  0  0  0  0  0  0  0  0  0
   41.8870   23.2420   35.9910 C   0  0  0  0  0  0  0  0  0  0  0  0
   40.8320   23.8840   35.4860 N   0  0  0  0  0  0  0  0  0  0  0  0
   39.5940   23.8330   35.9220 C   0  0  0  0  0  0  0  0  0  0  0  0
   36.4730   24.1360   36.4740 H   0  0  0  0  0  0  0  0  0  0  0  0
   40.3370   21.7000   38.4180 H   0  0  0  0  0  0  0  0  0  0  0  0
   42.8610   23.3680   35.5380 H   0  0  0  0  0  0  0  0  0  0  0  0
   36.9470   20.6860   32.3290 C   0  0  0  0  0  0  0  0  0  0  0  0
   36.0180   21.6820   32.2480 C   0  0  0  0  0  0  0  0  0  0  0  0
   36.3770   22.9840   32.5600 C   0  0  0  0  0  0  0  0  0  0  0  0
   37.6720   23.3360   32.9600 C   0  0  0  0  0  0  0  0  0  0  0  0
   38.5830   22.3090   33.0300 C   0  0  0  0  0  0  0  0  0  0  0  0
   38.2160   21.0340   32.7210 C   0  0  0  0  0  0  0  0  0  0  0  0
   37.6040   18.2110   32.2490 H   0  0  0  0  0  0  0  0  0  0  0  0
   36.5550   19.0310   31.9500 S   0  0  0  0  0  0  0  0  0  0  0  0
   36.2290   18.8380   30.5050 O   0  0  0  0  0  0  0  0  0  0  0  0
   35.3610   18.5760   32.7630 O   0  0  0  0  0  0  0  0  0  0  0  0
  1  2  1  0  0  0  0
  2  3  2  0  0  0  0
  2  9  1  0  0  0  0
  3  7  1  0  0  0  0
  4  3  1  0  0  0  0
  5  4  2  0  0  0  0
  6  5  1  0  0  0  0
  6  1  2  0  0  0  0
  8  5  1  0  0  0  0
  9 17  1  0  0  0  0
  9 10  1  0  0  0  0
 10 18  1  0  0  0  0
 10 11  2  0  0  0  0
 12 11  1  0  0  0  0
 12 13  1  0  0  0  0
 13 19  1  0  0  0  0
 14 13  2  0  0  0  0
 15 14  1  0  0  0  0
 16 17  1  0  0  0  0
 16 15  2  0  0  0  0
 17 12  2  0  0  0  0
 20 15  1  0  0  0  0
 21 26  1  0  0  0  0
 22 21  2  0  0  0  0
 22 23  1  0  0  0  0
 23 24  2  0  0  0  0
 24 25  1  0  0  0  0
 24  1  1  0  0  0  0
 26 25  2  0  0  0  0
 28 27  1  0  0  0  0
 28 21  1  0  0  0  0
 28 30  2  0  0  0  0
 29 28  2  0  0  0  0
M  END
>  <minimizedAffinity>
-4.97331524

>  <minimizedRMSD>
1.18672752

$$$$
