
 OpenBabel03262515583D

 25 26  0  0  0  0  0  0  0  0999 V2000
   38.0940   23.8460   35.7230 C   0  0  0  0  0  0  0  0  0  0  0  0
   38.1540   24.5290   36.9370 C   0  0  0  0  0  0  0  0  0  0  0  0
   38.0920   25.9390   36.9270 C   0  0  0  0  0  0  0  0  0  0  0  0
   37.9740   26.5730   35.7180 N   0  0  0  0  0  0  0  0  0  0  0  0
   37.9180   25.8700   34.5670 C   0  0  0  0  0  0  0  0  0  0  0  0
   37.9770   24.5480   34.5720 N   0  0  0  0  0  0  0  0  0  0  0  0
   38.1410   26.4560   37.8790 H   0  0  0  0  0  0  0  0  0  0  0  0
   37.5780   28.0120   31.0020 C   0  0  0  0  0  0  0  0  0  0  0  0
   38.4470   26.9220   30.9960 C   0  0  0  0  0  0  0  0  0  0  0  0
   38.5210   26.2440   32.2120 C   0  0  0  0  0  0  0  0  0  0  0  0
   37.7910   26.6300   33.3180 C   0  0  0  0  0  0  0  0  0  0  0  0
   36.9630   27.7120   33.2310 C   0  0  0  0  0  0  0  0  0  0  0  0
   36.8330   28.4360   32.0690 C   0  0  0  0  0  0  0  0  0  0  0  0
   36.1540   28.7430   29.0500 H   0  0  0  0  0  0  0  0  0  0  0  0
   37.4410   28.9080   29.4990 S   0  0  0  0  0  0  0  0  0  0  0  0
   38.3390   28.3320   28.4620 O   0  0  0  0  0  0  0  0  0  0  0  0
   37.6920   30.3730   29.7320 O   0  0  0  0  0  0  0  0  0  0  0  0
   38.2820   23.8300   38.2290 C   0  0  0  0  0  0  0  0  0  0  0  0
   39.5080   23.2620   38.2900 F   0  0  0  0  0  0  0  0  0  0  0  0
   37.3320   22.8860   38.4410 F   0  0  0  0  0  0  0  0  0  0  0  0
   38.2900   24.7730   39.2940 F   0  0  0  0  0  0  0  0  0  0  0  0
   38.1430   22.3880   35.5330 C   0  0  0  0  0  0  0  0  0  0  0  0
   38.1530   22.0640   34.1850 F   0  0  0  0  0  0  0  0  0  0  0  0
   39.2450   21.8300   36.1720 F   0  0  0  0  0  0  0  0  0  0  0  0
   37.0760   21.7260   36.0670 F   0  0  0  0  0  0  0  0  0  0  0  0
  1  2  1  0  0  0  0
  2 18  1  0  0  0  0
  3  2  2  0  0  0  0
  3  7  1  0  0  0  0
  4  3  1  0  0  0  0
  5  6  1  0  0  0  0
  5  4  2  0  0  0  0
  6  1  2  0  0  0  0
  8 13  1  0  0  0  0
  9  8  2  0  0  0  0
  9 10  1  0  0  0  0
 10 11  2  0  0  0  0
 11  5  1  0  0  0  0
 12 11  1  0  0  0  0
 13 12  2  0  0  0  0
 14 15  1  0  0  0  0
 15 17  2  0  0  0  0
 15  8  1  0  0  0  0
 16 15  2  0  0  0  0
 18 19  1  0  0  0  0
 18 20  1  0  0  0  0
 18 21  1  0  0  0  0
 22  1  1  0  0  0  0
 22 25  1  0  0  0  0
 22 24  1  0  0  0  0
 23 22  1  0  0  0  0
M  END
>  <minimizedAffinity>
-5.66871786

>  <minimizedRMSD>
2.64894199

$$$$
