
 OpenBabel03262519153D

 36 39  0  0  0  0  0  0  0  0999 V2000
   39.6210   23.7310   35.9270 C   0  0  0  0  0  0  0  0  0  0  0  0
   39.8840   24.9430   35.2430 C   0  0  0  0  0  0  0  0  0  0  0  0
   41.1500   25.1910   34.7490 C   0  0  0  0  0  0  0  0  0  0  0  0
   42.0880   24.2300   34.9600 N   0  0  0  0  0  0  0  0  0  0  0  0
   41.7980   23.0500   35.6360 C   0  0  0  0  0  0  0  0  0  0  0  0
   40.5780   22.8380   36.0970 N   0  0  0  0  0  0  0  0  0  0  0  0
   38.5980   23.5970   36.2920 H   0  0  0  0  0  0  0  0  0  0  0  0
   41.4360   26.0880   34.2160 H   0  0  0  0  0  0  0  0  0  0  0  0
   38.8960   25.9760   35.0180 C   0  0  0  0  0  0  0  0  0  0  0  0
   38.6800   27.0590   35.8600 C   0  0  0  0  0  0  0  0  0  0  0  0
   37.7110   27.9370   35.4980 C   0  0  0  0  0  0  0  0  0  0  0  0
   37.0040   27.7020   34.3270 C   0  0  0  0  0  0  0  0  0  0  0  0
   37.7540   26.1380   33.6870 S   0  0  0  0  0  0  0  0  0  0  0  0
   39.2450   27.2210   36.7690 H   0  0  0  0  0  0  0  0  0  0  0  0
   37.3920   28.8320   36.0110 H   0  0  0  0  0  0  0  0  0  0  0  0
   35.9640   28.3490   33.6300 C   0  0  0  0  0  0  0  0  0  0  0  0
   35.7530   28.1160   32.4320 O   0  0  0  0  0  0  0  0  0  0  0  0
   35.1090   29.3110   34.2980 N   0  0  0  0  0  0  0  0  0  0  0  0
   34.9270   30.2780   34.5800 H   0  0  0  0  0  0  0  0  0  0  0  0
   34.2780   28.7870   34.6800 H   0  0  0  0  0  0  0  0  0  0  0  0
   42.9300   22.1110   35.7830 C   0  0  0  0  0  0  0  0  0  0  0  0
   44.1490   22.5500   35.2930 C   0  0  0  0  0  0  0  0  0  0  0  0
   45.2610   21.0790   35.6890 S   0  0  0  0  0  0  0  0  0  0  0  0
   43.7930   20.1710   36.4510 C   0  0  0  0  0  0  0  0  0  0  0  0
   42.9670   20.9150   36.3130 N   0  0  0  0  0  0  0  0  0  0  0  0
   44.6080   23.3930   34.8030 H   0  0  0  0  0  0  0  0  0  0  0  0
   44.2870   16.3070   37.9790 C   0  0  0  0  0  0  0  0  0  0  0  0
   45.4160   17.0820   37.8030 C   0  0  0  0  0  0  0  0  0  0  0  0
   45.3330   18.3780   37.3000 C   0  0  0  0  0  0  0  0  0  0  0  0
   44.0640   18.8160   36.9970 C   0  0  0  0  0  0  0  0  0  0  0  0
   42.9050   18.0890   37.1500 C   0  0  0  0  0  0  0  0  0  0  0  0
   43.0150   16.7910   37.6580 C   0  0  0  0  0  0  0  0  0  0  0  0
   44.3860   14.6320   39.9740 H   0  0  0  0  0  0  0  0  0  0  0  0
   44.3670   14.6660   38.6130 S   0  0  0  0  0  0  0  0  0  0  0  0
   45.5410   13.9830   37.9790 O   0  0  0  0  0  0  0  0  0  0  0  0
   43.1310   13.8960   38.1730 O   0  0  0  0  0  0  0  0  0  0  0  0
  1  6  1  0  0  0  0
  1  7  1  0  0  0  0
  2  1  2  0  0  0  0
  3  4  2  0  0  0  0
  3  2  1  0  0  0  0
  4  5  1  0  0  0  0
  5 21  1  0  0  0  0
  5  6  2  0  0  0  0
  8  3  1  0  0  0  0
  9  2  1  0  0  0  0
  9 10  2  0  0  0  0
 10 14  1  0  0  0  0
 11 10  1  0  0  0  0
 11 15  1  0  0  0  0
 12 11  2  0  0  0  0
 13 12  1  0  0  0  0
 13  9  1  0  0  0  0
 16 18  1  0  0  0  0
 16 12  1  0  0  0  0
 17 16  2  0  0  0  0
 18 19  1  0  0  0  0
 18 20  1  0  0  0  0
 21 25  1  0  0  0  0
 22 23  1  0  0  0  0
 22 21  2  0  0  0  0
 23 24  1  0  0  0  0
 24 30  1  0  0  0  0
 25 24  2  0  0  0  0
 26 22  1  0  0  0  0
 27 34  1  0  0  0  0
 28 27  1  0  0  0  0
 29 28  2  0  0  0  0
 30 31  2  0  0  0  0
 30 29  1  0  0  0  0
 31 32  1  0  0  0  0
 32 27  2  0  0  0  0
 34 33  1  0  0  0  0
 35 34  2  0  0  0  0
 36 34  2  0  0  0  0
M  END
>  <minimizedAffinity>
-4.46987391

>  <minimizedRMSD>
1.83831978

$$$$
