
     RDKit          3D

 37 40  0  0  0  0  0  0  0  0999 V2000
   38.0312   23.4722   34.6182 C   0  0  0  0  0  0  0  0  0  0  0  0
   38.2663   24.5679   33.7946 C   0  0  0  0  0  0  0  0  0  0  0  0
   37.7638   24.1767   32.5916 N   0  0  0  0  0  0  0  0  0  0  0  0
   37.2794   22.9566   32.7124 C   0  0  0  0  0  0  0  0  0  0  0  0
   37.4272   22.4753   33.9721 N   0  0  0  0  0  0  0  0  0  0  0  0
   38.3965   23.3994   36.0352 C   0  0  0  0  0  0  0  0  0  0  0  0
   39.5945   22.8021   36.4262 C   0  0  0  0  0  0  0  0  0  0  0  0
   39.9047   22.7548   37.8012 C   0  0  0  0  0  0  0  0  0  0  0  0
   39.0112   23.2965   38.6521 N   0  0  0  0  0  0  0  0  0  0  0  0
   37.8551   23.8708   38.2496 C   0  0  0  0  0  0  0  0  0  0  0  0
   37.5308   23.9311   36.9392 N   0  0  0  0  0  0  0  0  0  0  0  0
   36.9906   21.1721   34.3901 C   0  0  1  0  0  0  0  0  0  0  0  0
   35.8490   20.9611   35.2604 C   0  0  0  0  0  0  0  0  0  0  0  0
   35.6746   20.7683   33.7609 C   0  0  2  0  0  0  0  0  0  0  0  0
   38.7473   25.4725   34.1408 H   0  0  0  0  0  0  0  0  0  0  0  0
   36.8412   22.5042   31.8322 H   0  0  0  0  0  0  0  0  0  0  0  0
   40.2305   22.4032   35.6632 H   0  0  0  0  0  0  0  0  0  0  0  0
   40.8278   22.2936   38.0924 H   0  0  0  0  0  0  0  0  0  0  0  0
   37.1636   24.2954   38.9701 H   0  0  0  0  0  0  0  0  0  0  0  0
   37.8160   20.4256   34.4155 H   0  0  0  0  0  0  0  0  0  0  0  0
   35.3381   21.8810   35.6474 H   0  0  0  0  0  0  0  0  0  0  0  0
   35.7588   20.1151   35.9437 H   0  0  0  0  0  0  0  0  0  0  0  0
   35.0600   21.4741   33.2050 H   0  0  0  0  0  0  0  0  0  0  0  0
   35.0054   14.2630   32.9425 H   0  0  0  0  0  0  0  0  0  0  0  0
   35.1115   15.0721   31.8595 S   0  0  0  0  0  0  0  0  0  0  0  0
   33.8432   14.9652   31.0427 O   0  0  0  0  0  0  0  0  0  0  0  0
   36.2759   14.6827   30.9909 O   0  0  0  0  0  0  0  0  0  0  0  0
   35.2703   16.7258   32.4279 C   0  0  0  0  0  0  0  0  0  0  0  0
   35.7102   17.6789   31.5318 C   0  0  0  0  0  0  0  0  0  0  0  0
   35.8153   18.9512   32.0290 C   0  0  0  0  0  0  0  0  0  0  0  0
   35.5237   19.3422   33.3198 C   0  0  0  0  0  0  0  0  0  0  0  0
   35.0823   18.3565   34.1987 C   0  0  0  0  0  0  0  0  0  0  0  0
   34.9670   17.0640   33.7236 C   0  0  0  0  0  0  0  0  0  0  0  0
   35.9697   17.4996   30.4980 H   0  0  0  0  0  0  0  0  0  0  0  0
   36.1570   19.7458   31.3700 H   0  0  0  0  0  0  0  0  0  0  0  0
   34.8382   18.6048   35.2254 H   0  0  0  0  0  0  0  0  0  0  0  0
   34.6199   16.3146   34.4327 H   0  0  0  0  0  0  0  0  0  0  0  0
  1  6  1  0
  2  1  2  0
  3  4  2  0
  3  2  1  0
  4  5  1  0
  5 12  1  0
  5  1  1  0
  6  7  2  0
  6 11  1  0
  7  8  1  0
  8  9  2  0
 10  9  1  0
 11 10  2  0
 12 13  1  0
 14 12  1  0
 14 13  1  0
  2 15  1  0
  4 16  1  0
  7 17  1  0
  8 18  1  0
 10 19  1  0
 12 20  1  1
 13 21  1  0
 13 22  1  0
 14 23  1  6
 24 25  1  0
 25 26  2  0
 25 27  2  0
 25 28  1  0
 28 29  2  0
 29 30  1  0
 30 31  2  0
 31 32  1  0
 32 33  2  0
 33 28  1  0
 29 34  1  0
 30 35  1  0
 32 36  1  0
 33 37  1  0
 14 31  1  0
M  ISO  8  15  14  16  14  17  14  18  14  19  14  20  13  21  13  22  13
M  ISO  2  23  13  24  12
M  END
>  <DihAtoms>  (1) 
11,13,30,29

>  <DihDeg>  (1) 
-152.91373497077112

$$$$
