
 OpenBabel03262516383D

 33 35  0  0  1  0  0  0  0  0999 V2000
   39.8770   22.6800   37.5420 C   0  0  0  0  0  0  0  0  0  0  0  0
   39.0970   23.4700   38.4020 C   0  0  0  0  0  0  0  0  0  0  0  0
   37.7440   23.6300   38.0910 C   0  0  0  0  0  0  0  0  0  0  0  0
   37.2590   23.0120   36.9720 N   0  0  0  0  0  0  0  0  0  0  0  0
   38.0430   22.2560   36.1640 C   0  0  0  0  0  0  0  0  0  0  0  0
   39.3390   22.1080   36.4690 N   0  0  0  0  0  0  0  0  0  0  0  0
   37.4380   21.6560   35.0220 N   0  0  0  0  0  0  0  0  0  0  0  0
   36.1620   21.0070   35.1990 C   0  0  0  0  0  0  0  0  0  0  0  0
   35.5280   20.6040   33.9090 C   0  0  0  0  0  0  0  0  0  0  0  0
   35.9050   21.5320   32.8990 N   0  0  0  0  0  0  0  0  0  0  0  0
   37.3310   21.2740   32.6090 C   0  0  0  0  0  0  0  0  0  0  0  0
   38.1830   21.7590   33.7490 C   0  0  1  0  0  0  0  0  0  0  0  0
   40.9420   22.4740   37.6680 H   0  0  0  0  0  0  0  0  0  0  0  0
   39.5950   23.9010   39.2480 H   0  0  0  0  0  0  0  0  0  0  0  0
   37.1480   24.2280   38.7400 H   0  0  0  0  0  0  0  0  0  0  0  0
   36.2010   20.1150   35.8600 H   0  0  0  0  0  0  0  0  0  0  0  0
   35.4340   21.7110   35.6960 H   0  0  0  0  0  0  0  0  0  0  0  0
   34.4270   20.5230   34.0240 H   0  0  0  0  0  0  0  0  0  0  0  0
   35.9430   19.6040   33.6360 H   0  0  0  0  0  0  0  0  0  0  0  0
   35.3790   21.4370   32.0060 H   0  0  0  0  0  0  0  0  0  0  0  0
   37.5590   21.8300   31.6740 H   0  0  0  0  0  0  0  0  0  0  0  0
   37.4840   20.1970   32.3790 H   0  0  0  0  0  0  0  0  0  0  0  0
   39.0140   21.0270   33.8580 H   0  0  0  0  0  0  0  0  0  0  0  0
   39.7460   25.6470   33.1930 C   0  0  0  0  0  0  0  0  0  0  0  0
   40.6010   24.5700   33.1540 C   0  0  0  0  0  0  0  0  0  0  0  0
   40.0450   23.3210   33.3400 C   0  0  0  0  0  0  0  0  0  0  0  0
   38.6950   23.1350   33.5580 C   0  0  0  0  0  0  0  0  0  0  0  0
   37.9030   24.2640   33.5840 C   0  0  0  0  0  0  0  0  0  0  0  0
   38.3690   25.5500   33.4070 C   0  0  0  0  0  0  0  0  0  0  0  0
   39.5910   28.1630   33.3830 H   0  0  0  0  0  0  0  0  0  0  0  0
   40.4900   27.2170   32.9520 S   0  0  0  0  0  0  0  0  0  0  0  0
   41.7350   27.2960   33.7710 O   0  0  0  0  0  0  0  0  0  0  0  0
   40.8760   27.4300   31.5230 O   0  0  0  0  0  0  0  0  0  0  0  0
  1 13  1  0  0  0  0
  1  2  1  0  0  0  0
  2 14  1  0  0  0  0
  3  2  2  0  0  0  0
  3 15  1  0  0  0  0
  4  3  1  0  0  0  0
  5  6  1  0  0  0  0
  5  4  2  0  0  0  0
  6  1  2  0  0  0  0
  7  8  1  0  0  0  0
  7  5  1  0  0  0  0
  8 17  1  0  0  0  0
  8 16  1  0  0  0  0
  9 18  1  0  0  0  0
  9  8  1  0  0  0  0
 10  9  1  0  0  0  0
 11 10  1  0  0  0  0
 11 12  1  0  0  0  0
 12 23  1  1  0  0  0
 12  7  1  0  0  0  0
 19  9  1  0  0  0  0
 20 10  1  0  0  0  0
 21 11  1  0  0  0  0
 22 11  1  0  0  0  0
 24 29  1  0  0  0  0
 25 24  2  0  0  0  0
 25 26  1  0  0  0  0
 26 27  2  0  0  0  0
 27 28  1  0  0  0  0
 27 12  1  0  0  0  0
 29 28  2  0  0  0  0
 31 24  1  0  0  0  0
 31 30  1  0  0  0  0
 31 32  2  0  0  0  0
 33 31  2  0  0  0  0
M  END
>  <minimizedAffinity>
-4.72120237

>  <minimizedRMSD>
1.27916276

$$$$
