
 OpenBabel03262519573D

 33 36  0  0  1  0  0  0  0  0999 V2000
   36.7000   21.4820   32.8110 C   0  0  1  0  0  0  0  0  0  0  0  0
   35.9120   20.9140   33.8890 C   0  0  0  0  0  0  0  0  0  0  0  0
   35.5020   20.6290   32.4520 C   0  0  2  0  0  0  0  0  0  0  0  0
   37.7170   21.0690   32.6300 H   0  0  0  0  0  0  0  0  0  0  0  0
   35.2090   21.6110   34.4160 H   0  0  0  0  0  0  0  0  0  0  0  0
   36.2660   20.1100   34.5370 H   0  0  0  0  0  0  0  0  0  0  0  0
   34.5790   21.0610   32.0700 H   0  0  0  0  0  0  0  0  0  0  0  0
   37.2230   23.9580   32.6770 C   0  0  0  0  0  0  0  0  0  0  0  0
   36.7310   25.0660   31.9950 C   0  0  0  0  0  0  0  0  0  0  0  0
   35.7170   24.5550   31.2450 N   0  0  0  0  0  0  0  0  0  0  0  0
   35.6310   23.2600   31.4760 C   0  0  0  0  0  0  0  0  0  0  0  0
   36.5610   22.8430   32.3720 N   0  0  0  0  0  0  0  0  0  0  0  0
   37.1410   26.0600   32.1120 H   0  0  0  0  0  0  0  0  0  0  0  0
   34.8640   22.7080   30.9480 H   0  0  0  0  0  0  0  0  0  0  0  0
   38.3390   23.9900   33.6260 C   0  0  0  0  0  0  0  0  0  0  0  0
   39.6500   23.8350   33.1800 C   0  0  0  0  0  0  0  0  0  0  0  0
   40.6930   23.8730   34.1290 C   0  0  0  0  0  0  0  0  0  0  0  0
   40.3440   24.0590   35.4180 N   0  0  0  0  0  0  0  0  0  0  0  0
   39.0640   24.2070   35.8280 C   0  0  0  0  0  0  0  0  0  0  0  0
   38.0450   24.1760   34.9410 N   0  0  0  0  0  0  0  0  0  0  0  0
   39.8120   23.6920   32.1320 H   0  0  0  0  0  0  0  0  0  0  0  0
   41.6980   23.7520   33.7770 H   0  0  0  0  0  0  0  0  0  0  0  0
   38.8290   24.3550   36.8760 H   0  0  0  0  0  0  0  0  0  0  0  0
   36.2880   16.6630   31.0610 C   0  0  0  0  0  0  0  0  0  0  0  0
   36.8080   17.7280   30.3550 C   0  0  0  0  0  3  0  0  0  0  0  0
   36.5150   18.9680   30.8590 C   0  0  0  0  0  3  0  0  0  0  0  0
   35.7630   19.2270   31.9860 C   0  0  0  0  0  0  0  0  0  0  0  0
   35.2530   18.1300   32.6760 C   0  0  0  0  0  3  0  0  0  0  0  0
   35.5320   16.8660   32.1890 C   0  0  0  0  0  3  0  0  0  0  0  0
   37.0370   14.2910   31.5220 H   0  0  0  0  0  0  0  0  0  0  0  0
   36.6230   15.0420   30.4730 S   0  0  0  0  0  0  0  0  0  0  0  0
   35.3400   14.4560   29.9280 O   0  0  0  0  0  0  0  0  0  0  0  0
   37.6460   15.0660   29.3710 O   0  0  0  0  0  0  0  0  0  0  0  0
  1  4  1  6  0  0  0
  1  2  1  0  0  0  0
  2  5  1  0  0  0  0
  2  6  1  0  0  0  0
  3  7  1  6  0  0  0
  3  1  1  0  0  0  0
  3  2  1  0  0  0  0
  8 15  1  0  0  0  0
  9 13  1  0  0  0  0
  9  8  2  0  0  0  0
 10 11  2  0  0  0  0
 10  9  1  0  0  0  0
 11 12  1  0  0  0  0
 12  8  1  0  0  0  0
 12  1  1  0  0  0  0
 14 11  1  0  0  0  0
 15 20  1  0  0  0  0
 16 15  2  0  0  0  0
 16 17  1  0  0  0  0
 17 18  2  0  0  0  0
 18 19  1  0  0  0  0
 19 23  1  0  0  0  0
 20 19  2  0  0  0  0
 21 16  1  0  0  0  0
 22 17  1  0  0  0  0
 24 29  1  0  0  0  0
 25 26  1  0  0  0  0
 25 24  2  0  0  0  0
 26 27  2  0  0  0  0
 27  3  1  0  0  0  0
 27 28  1  0  0  0  0
 29 28  2  0  0  0  0
 31 24  1  0  0  0  0
 31 30  1  0  0  0  0
 32 31  2  0  0  0  0
 33 31  2  0  0  0  0
M  END
>  <minimizedAffinity>
-4.69169283

>  <minimizedRMSD>
2.23219633

$$$$
