
 OpenBabel03262519053D

 26 28  0  0  1  0  0  0  0  0999 V2000
   38.2760   25.9200   35.2080 C   0  0  2  0  0  0  0  0  0  0  0  0
   39.3680   26.9810   35.0960 C   0  0  0  0  0  0  0  0  0  0  0  0
   37.9940   27.3140   35.5980 C   0  0  1  0  0  0  0  0  0  0  0  0
   37.9410   25.4660   34.2430 H   0  0  0  0  0  0  0  0  0  0  0  0
   40.1740   26.9890   35.8470 H   0  0  0  0  0  0  0  0  0  0  0  0
   39.6150   27.2400   34.0510 H   0  0  0  0  0  0  0  0  0  0  0  0
   37.8760   27.4820   36.6910 H   0  0  0  0  0  0  0  0  0  0  0  0
   39.7070   22.9990   36.9230 C   0  0  0  0  0  0  0  0  0  0  0  0
   39.0750   23.0160   38.1890 C   0  0  0  0  0  0  0  0  0  0  0  0
   38.1440   24.0510   38.4300 C   0  0  0  0  0  0  0  0  0  0  0  0
   37.9170   24.9580   37.4420 N   0  0  0  0  0  0  0  0  0  0  0  0
   38.5610   24.8910   36.2330 C   0  0  0  0  0  0  0  0  0  0  0  0
   39.4580   23.9010   35.9840 N   0  0  0  0  0  0  0  0  0  0  0  0
   40.4160   22.2140   36.7340 H   0  0  0  0  0  0  0  0  0  0  0  0
   39.2580   22.2930   38.9720 H   0  0  0  0  0  0  0  0  0  0  0  0
   37.6060   24.1570   39.3590 H   0  0  0  0  0  0  0  0  0  0  0  0
   35.2470   29.5200   33.2200 C   0  0  0  0  0  0  0  0  0  0  0  0
   35.5760   29.8910   34.4930 C   0  0  0  0  0  0  0  0  0  0  0  0
   36.4680   29.2090   35.3170 C   0  0  0  0  0  0  0  0  0  0  0  0
   37.0370   28.0690   34.7500 C   0  0  0  0  0  0  0  0  0  0  0  0
   36.7390   27.6500   33.4700 C   0  0  0  0  0  0  0  0  0  0  0  0
   35.8360   28.3710   32.6830 C   0  0  0  0  0  0  0  0  0  0  0  0
   33.8860   31.7270   33.0460 H   0  0  0  0  0  0  0  0  0  0  0  0
   34.1010   30.5380   32.3800 S   0  0  0  0  0  0  0  0  0  0  0  0
   32.7300   29.8780   32.3160 O   0  0  0  0  0  0  0  0  0  0  0  0
   34.5360   30.7550   30.9630 O   0  0  0  0  0  0  0  0  0  0  0  0
  1  4  1  6  0  0  0
  1  3  1  0  0  0  0
  1 12  1  0  0  0  0
  2  1  1  0  0  0  0
  2  3  1  0  0  0  0
  2  5  1  0  0  0  0
  3  7  1  1  0  0  0
  6  2  1  0  0  0  0
  8  9  1  0  0  0  0
  9 10  2  0  0  0  0
  9 15  1  0  0  0  0
 10 16  1  0  0  0  0
 11 10  1  0  0  0  0
 12 11  2  0  0  0  0
 13 12  1  0  0  0  0
 13  8  2  0  0  0  0
 14  8  1  0  0  0  0
 17 18  1  0  0  0  0
 18 19  2  0  0  0  0
 20 19  1  0  0  0  0
 20  3  1  0  0  0  0
 21 20  2  0  0  0  0
 22 17  2  0  0  0  0
 22 21  1  0  0  0  0
 24 23  1  0  0  0  0
 24 17  1  0  0  0  0
 25 24  2  0  0  0  0
 26 24  2  0  0  0  0
M  END
>  <minimizedAffinity>
-4.90313435

>  <minimizedRMSD>
0.973580301

$$$$
