
 OpenBabel03262518493D

 30 31  0  0  0  0  0  0  0  0999 V2000
   39.0070   21.6740   31.8460 C   0  0  0  0  0  0  0  0  0  0  0  0
   38.0610   21.1470   32.6850 C   0  0  0  0  0  0  0  0  0  0  0  0
   38.0330   21.5340   34.0000 C   0  0  0  0  0  0  0  0  0  0  0  0
   38.9210   22.4360   34.5180 C   0  0  0  0  0  0  0  0  0  0  0  0
   39.8810   22.9730   33.6660 C   0  0  0  0  0  0  0  0  0  0  0  0
   39.9540   22.6180   32.3330 C   0  0  0  0  0  0  0  0  0  0  0  0
   37.3010   21.1320   34.6750 H   0  0  0  0  0  0  0  0  0  0  0  0
   40.5710   23.6770   34.0760 H   0  0  0  0  0  0  0  0  0  0  0  0
   40.7140   23.0570   31.7010 H   0  0  0  0  0  0  0  0  0  0  0  0
   39.7330   22.9210   38.0720 C   0  0  0  0  0  0  0  0  0  0  0  0
   38.6450   23.6340   38.5440 C   0  0  0  0  0  0  0  0  0  0  0  0
   37.6450   23.9400   37.6350 C   0  0  0  0  0  0  0  0  0  0  0  0
   37.7710   23.5360   36.3450 N   0  0  0  0  0  0  0  0  0  0  0  0
   38.8720   22.8320   35.9330 C   0  0  0  0  0  0  0  0  0  0  0  0
   39.8360   22.5280   36.7760 N   0  0  0  0  0  0  0  0  0  0  0  0
   40.5130   22.6780   38.7640 H   0  0  0  0  0  0  0  0  0  0  0  0
   38.4930   23.9740   39.5360 H   0  0  0  0  0  0  0  0  0  0  0  0
   36.7590   24.4820   37.8700 H   0  0  0  0  0  0  0  0  0  0  0  0
   39.1850   21.1080   30.2760 S   0  0  0  0  0  0  0  0  0  0  0  0
   39.1640   22.3190   29.3020 O   0  0  0  0  0  0  0  0  0  0  0  0
   40.5080   20.3980   30.2420 O   0  0  0  0  0  0  0  0  0  0  0  0
   38.3250   20.1220   29.2950 C   0  0  0  0  0  0  0  0  0  0  0  0
   36.9510   19.9770   29.4700 F   0  0  0  0  0  0  0  0  0  0  0  0
   38.6630   18.7750   29.6270 F   0  0  0  0  0  0  0  0  0  0  0  0
   38.7200   19.9080   27.9540 F   0  0  0  0  0  0  0  0  0  0  0  0
   36.8270   20.0040   32.0960 S   0  0  0  0  0  0  0  0  0  0  0  0
   35.1810   20.4580   32.6510 C   0  0  0  0  0  0  0  0  0  0  0  0
   34.1950   19.7330   32.0450 F   0  0  0  0  0  0  0  0  0  0  0  0
   35.1010   20.1360   34.0010 F   0  0  0  0  0  0  0  0  0  0  0  0
   34.9830   21.8060   32.6050 F   0  0  0  0  0  0  0  0  0  0  0  0
  1  6  2  0  0  0  0
  1  2  1  0  0  0  0
  2  3  2  0  0  0  0
  3  4  1  0  0  0  0
  3  7  1  0  0  0  0
  4 14  1  0  0  0  0
  5  8  1  0  0  0  0
  5  4  2  0  0  0  0
  6  5  1  0  0  0  0
  9  6  1  0  0  0  0
 10 11  1  0  0  0  0
 10 16  1  0  0  0  0
 11 17  1  0  0  0  0
 12 18  1  0  0  0  0
 12 11  2  0  0  0  0
 13 12  1  0  0  0  0
 14 13  2  0  0  0  0
 14 15  1  0  0  0  0
 15 10  2  0  0  0  0
 19  1  1  0  0  0  0
 20 19  2  0  0  0  0
 21 19  2  0  0  0  0
 22 23  1  0  0  0  0
 22 24  1  0  0  0  0
 22 19  1  0  0  0  0
 25 22  1  0  0  0  0
 26 27  1  0  0  0  0
 26  2  1  0  0  0  0
 27 29  1  0  0  0  0
 28 27  1  0  0  0  0
 30 27  1  0  0  0  0
M  END
>  <minimizedAffinity>
-4.56923437

>  <minimizedRMSD>
1.0394479

$$$$
