
     RDKit          3D

 38 41  0  0  0  0  0  0  0  0999 V2000
   38.0306   23.4729   34.6083 C   0  0  0  0  0  0  0  0  0  0  0  0
   38.2695   24.5672   33.7970 C   0  0  0  0  0  0  0  0  0  0  0  0
   37.7654   24.1818   32.5832 N   0  0  0  0  0  0  0  0  0  0  0  0
   37.2772   22.9491   32.7152 C   0  0  0  0  0  0  0  0  0  0  0  0
   37.4281   22.4774   33.9713 N   0  0  0  0  0  0  0  0  0  0  0  0
   38.3956   23.3994   36.0236 C   0  0  0  0  0  0  0  0  0  0  0  0
   39.5796   22.8116   36.4382 C   0  0  0  0  0  0  0  0  0  0  0  0
   39.8985   22.7578   37.7996 C   0  0  0  0  0  0  0  0  0  0  0  0
   39.0165   23.2934   38.6584 N   0  0  0  0  0  0  0  0  0  0  0  0
   37.8558   23.8698   38.2528 C   0  0  0  0  0  0  0  0  0  0  0  0
   37.5477   23.9225   36.9464 N   0  0  0  0  0  0  0  0  0  0  0  0
   36.9941   21.1829   34.3905 C   0  0  1  0  0  0  0  0  0  0  0  0
   35.8486   20.9583   35.2502 C   0  0  0  0  0  0  0  0  0  0  0  0
   35.6679   20.7610   33.7693 C   0  0  2  0  0  0  0  0  0  0  0  0
   38.7380   25.5060   34.0422 H   0  0  0  0  0  0  0  0  0  0  0  0
   36.8191   22.4230   31.8797 H   0  0  0  0  0  0  0  0  0  0  0  0
   40.2689   22.3895   35.7250 H   0  0  0  0  0  0  0  0  0  0  0  0
   40.8162   22.3034   38.1359 H   0  0  0  0  0  0  0  0  0  0  0  0
   37.1321   24.3073   38.9340 H   0  0  0  0  0  0  0  0  0  0  0  0
   37.7985   20.4173   34.3859 H   0  0  0  0  0  0  0  0  0  0  0  0
   35.7899   20.1249   35.9625 H   0  0  0  0  0  0  0  0  0  0  0  0
   35.3371   21.8719   35.6701 H   0  0  0  0  0  0  0  0  0  0  0  0
   35.0711   21.5318   33.2216 H   0  0  0  0  0  0  0  0  0  0  0  0
   35.4914   19.4285   33.3086 N   0  0  0  0  0  0  0  0  0  0  0  0
   36.8028   18.8143   33.2165 C   0  0  0  0  0  0  0  0  0  0  0  0
   36.8020   17.5112   32.4637 C   0  0  0  0  0  0  0  0  0  0  0  0
   35.4762   16.9747   32.2387 N   0  0  0  0  0  0  0  0  0  0  0  0
   35.5938   16.1640   31.5900 H   0  0  0  0  0  0  0  0  0  0  0  0
   34.5707   17.9096   31.6562 C   0  0  0  0  0  0  0  0  0  0  0  0
   34.8440   19.3411   32.0191 C   0  0  0  0  0  0  0  0  0  0  0  0
   37.5097   19.5590   32.8133 H   0  0  0  0  0  0  0  0  0  0  0  0
   37.1281   18.6567   34.2847 H   0  0  0  0  0  0  0  0  0  0  0  0
   37.3409   17.7005   31.5020 H   0  0  0  0  0  0  0  0  0  0  0  0
   37.3737   16.7726   33.0543 H   0  0  0  0  0  0  0  0  0  0  0  0
   33.5359   17.6208   31.9850 H   0  0  0  0  0  0  0  0  0  0  0  0
   34.5781   17.7780   30.5543 H   0  0  0  0  0  0  0  0  0  0  0  0
   35.4448   19.7770   31.1857 H   0  0  0  0  0  0  0  0  0  0  0  0
   33.8857   19.8969   32.0362 H   0  0  0  0  0  0  0  0  0  0  0  0
  1  6  1  0
  2  1  2  0
  3  4  2  0
  3  2  1  0
  4  5  1  0
  5 12  1  0
  5  1  1  0
  6  7  2  0
  6 11  1  0
  7  8  1  0
  8  9  2  0
 10  9  1  0
 11 10  2  0
 12 13  1  0
 14 12  1  0
 14 13  1  0
  2 15  1  0
  4 16  1  0
  7 17  1  0
  8 18  1  0
 10 19  1  0
 12 20  1  1
 13 21  1  0
 13 22  1  0
 14 23  1  6
 24 25  1  0
 25 26  1  0
 26 27  1  0
 27 28  1  0
 27 29  1  0
 29 30  1  0
 30 24  1  0
 25 31  1  0
 25 32  1  0
 26 33  1  0
 26 34  1  0
 29 35  1  0
 29 36  1  0
 30 37  1  0
 30 38  1  0
 14 24  1  0
M  ISO  8  15  14  16  14  17  14  18  14  19  14  20  13  21  13  22  13
M  ISO  2  23  13  28   5
M  END
>  <DihAtoms>  (1) 
11,13,23,24

>  <DihDeg>  (1) 
179.82149338798283

$$$$
