
 OpenBabel03262519553D

 30 33  0  0  1  0  0  0  0  0999 V2000
   38.2260   24.1690   34.7570 C   0  0  0  0  0  0  0  0  0  0  0  0
   38.3190   25.4330   34.2050 C   0  0  0  0  0  0  0  0  0  0  0  0
   37.9690   25.2370   32.8950 N   0  0  0  0  0  0  0  0  0  0  0  0
   37.6990   23.9420   32.7320 C   0  0  0  0  0  0  0  0  0  0  0  0
   37.8510   23.2460   33.8790 N   0  0  0  0  0  0  0  0  0  0  0  0
   38.5960   26.3620   34.6750 H   0  0  0  0  0  0  0  0  0  0  0  0
   37.3960   23.5380   31.7690 H   0  0  0  0  0  0  0  0  0  0  0  0
   38.5070   23.8570   36.1590 C   0  0  0  0  0  0  0  0  0  0  0  0
   39.6540   23.1790   36.5360 C   0  0  0  0  0  0  0  0  0  0  0  0
   39.8920   22.8970   37.8860 C   0  0  0  0  0  0  0  0  0  0  0  0
   38.9720   23.3100   38.7710 N   0  0  0  0  0  0  0  0  0  0  0  0
   37.8470   23.9760   38.4030 C   0  0  0  0  0  0  0  0  0  0  0  0
   37.6160   24.2470   37.1070 N   0  0  0  0  0  0  0  0  0  0  0  0
   40.3760   22.8590   35.8020 H   0  0  0  0  0  0  0  0  0  0  0  0
   40.7800   22.3690   38.1930 H   0  0  0  0  0  0  0  0  0  0  0  0
   37.0930   24.3160   39.1050 H   0  0  0  0  0  0  0  0  0  0  0  0
   37.6270   21.8400   33.9910 C   0  0  1  0  0  0  0  0  0  0  0  0
   36.4970   21.2580   34.6870 C   0  0  0  0  0  0  0  0  0  0  0  0
   36.4270   21.3550   33.1860 C   0  0  2  0  0  0  0  0  0  0  0  0
   38.5510   21.2300   33.8990 H   0  0  0  0  0  0  0  0  0  0  0  0
   36.5480   20.2940   35.2080 H   0  0  0  0  0  0  0  0  0  0  0  0
   35.8140   21.9680   35.2380 H   0  0  0  0  0  0  0  0  0  0  0  0
   35.7330   22.1210   32.7580 H   0  0  0  0  0  0  0  0  0  0  0  0
   36.5060   20.1400   32.4530 N   0  0  0  0  0  0  0  0  0  0  0  0
   36.5060   20.4750   31.0420 C   0  0  0  0  0  2  0  0  0  0  0  0
   36.2850   19.2860   30.1450 C   0  0  0  0  0  2  0  0  0  0  0  0
   36.4120   18.0160   30.8290 N   0  0  0  0  0  0  0  0  0  0  0  0
   36.0950   17.2850   30.1510 H   0  0  0  0  0  0  0  0  0  0  0  0
   35.6280   17.9220   32.0150 C   0  0  0  0  0  2  0  0  0  0  0  0
   35.4130   19.2320   32.7180 C   0  0  0  0  0  2  0  0  0  0  0  0
  1  8  1  0  0  0  0
  2  6  1  0  0  0  0
  2  1  2  0  0  0  0
  3  2  1  0  0  0  0
  4  3  2  0  0  0  0
  4  5  1  0  0  0  0
  5 17  1  0  0  0  0
  5  1  1  0  0  0  0
  7  4  1  0  0  0  0
  8  9  2  0  0  0  0
  8 13  1  0  0  0  0
  9 10  1  0  0  0  0
 10 15  1  0  0  0  0
 10 11  2  0  0  0  0
 12 11  1  0  0  0  0
 12 16  1  0  0  0  0
 13 12  2  0  0  0  0
 14  9  1  0  0  0  0
 17 20  1  6  0  0  0
 17 18  1  0  0  0  0
 18 21  1  0  0  0  0
 18 22  1  0  0  0  0
 19 23  1  6  0  0  0
 19 17  1  0  0  0  0
 19 18  1  0  0  0  0
 24 30  1  0  0  0  0
 24 19  1  0  0  0  0
 25 24  1  0  0  0  0
 26 27  1  0  0  0  0
 26 25  1  0  0  0  0
 27 29  1  0  0  0  0
 28 27  1  0  0  0  0
 29 30  1  0  0  0  0
M  END
>  <minimizedAffinity>
-4.86871004

>  <minimizedRMSD>
1.44066608

$$$$
