
 OpenBabel03262519553D

 30 33  0  0  1  0  0  0  0  0999 V2000
   38.1790   24.1010   34.4730 C   0  0  0  0  0  0  0  0  0  0  0  0
   38.2930   25.3760   33.9500 C   0  0  0  0  0  0  0  0  0  0  0  0
   37.9090   25.2210   32.6430 N   0  0  0  0  0  0  0  0  0  0  0  0
   37.6030   23.9380   32.4560 C   0  0  0  0  0  0  0  0  0  0  0  0
   37.7610   23.2110   33.5820 N   0  0  0  0  0  0  0  0  0  0  0  0
   38.6050   26.2850   34.4360 H   0  0  0  0  0  0  0  0  0  0  0  0
   37.2680   23.5660   31.4900 H   0  0  0  0  0  0  0  0  0  0  0  0
   38.4820   23.7480   35.8610 C   0  0  0  0  0  0  0  0  0  0  0  0
   39.6740   23.1360   36.2100 C   0  0  0  0  0  0  0  0  0  0  0  0
   39.9320   22.8120   37.5470 C   0  0  0  0  0  0  0  0  0  0  0  0
   38.9860   23.1190   38.4470 N   0  0  0  0  0  0  0  0  0  0  0  0
   37.8170   23.7210   38.1060 C   0  0  0  0  0  0  0  0  0  0  0  0
   37.5670   24.0320   36.8230 N   0  0  0  0  0  0  0  0  0  0  0  0
   40.4160   22.9010   35.4650 H   0  0  0  0  0  0  0  0  0  0  0  0
   40.8550   22.3340   37.8320 H   0  0  0  0  0  0  0  0  0  0  0  0
   37.0410   23.9760   38.8210 H   0  0  0  0  0  0  0  0  0  0  0  0
   37.5020   21.8080   33.6650 C   0  0  1  0  0  0  0  0  0  0  0  0
   36.4780   21.2280   34.5090 C   0  0  0  0  0  0  0  0  0  0  0  0
   36.1690   21.4040   33.0470 C   0  0  2  0  0  0  0  0  0  0  0  0
   38.3740   21.1750   33.3960 H   0  0  0  0  0  0  0  0  0  0  0  0
   36.5750   20.2370   34.9710 H   0  0  0  0  0  0  0  0  0  0  0  0
   35.9230   21.9300   35.1970 H   0  0  0  0  0  0  0  0  0  0  0  0
   35.4460   22.2120   32.7730 H   0  0  0  0  0  0  0  0  0  0  0  0
   36.0800   20.2260   32.2570 N   0  0  0  0  0  0  0  0  0  0  0  0
   35.3770   19.2230   33.0340 C   0  0  0  0  0  2  0  0  0  0  0  0
   35.4700   17.8400   32.4480 C   0  0  0  0  0  2  0  0  0  0  0  0
   35.9750   17.8190   31.0920 N   0  0  0  0  0  0  0  0  0  0  0  0
   36.1330   16.8130   30.8530 H   0  0  0  0  0  0  0  0  0  0  0  0
   37.1970   18.5350   30.9240 C   0  0  0  0  0  2  0  0  0  0  0  0
   37.3660   19.6940   31.8620 C   0  0  0  0  0  2  0  0  0  0  0  0
  1  8  1  0  0  0  0
  2  6  1  0  0  0  0
  2  1  2  0  0  0  0
  3  2  1  0  0  0  0
  4  3  2  0  0  0  0
  4  5  1  0  0  0  0
  5 17  1  0  0  0  0
  5  1  1  0  0  0  0
  7  4  1  0  0  0  0
  8  9  2  0  0  0  0
  8 13  1  0  0  0  0
  9 10  1  0  0  0  0
 10 15  1  0  0  0  0
 10 11  2  0  0  0  0
 12 11  1  0  0  0  0
 12 16  1  0  0  0  0
 13 12  2  0  0  0  0
 14  9  1  0  0  0  0
 17 20  1  6  0  0  0
 17 18  1  0  0  0  0
 18 21  1  0  0  0  0
 18 22  1  0  0  0  0
 19 23  1  6  0  0  0
 19 17  1  0  0  0  0
 19 18  1  0  0  0  0
 24 25  1  0  0  0  0
 24 19  1  0  0  0  0
 26 25  1  0  0  0  0
 27 26  1  0  0  0  0
 28 27  1  0  0  0  0
 29 27  1  0  0  0  0
 29 30  1  0  0  0  0
 30 24  1  0  0  0  0
M  END
>  <minimizedAffinity>
-4.80462408

>  <minimizedRMSD>
1.10892129

$$$$
