
 OpenBabel03262518553D

 19 20  0  0  0  0  0  0  0  0999 V2000
   38.5510   22.4730   34.4000 C   0  0  0  0  0  0  0  0  0  0  0  0
   39.4550   22.0440   33.9290 H   0  0  0  0  0  0  0  0  0  0  0  0
   38.3360   23.4300   33.8600 H   0  0  0  0  0  0  0  0  0  0  0  0
   40.0250   22.5080   37.7480 C   0  0  0  0  0  0  0  0  0  0  0  0
   39.2450   23.4360   38.4580 C   0  0  0  0  0  0  0  0  0  0  0  0
   38.1930   24.0540   37.7630 C   0  0  0  0  0  0  0  0  0  0  0  0
   37.9820   23.7320   36.4510 N   0  0  0  0  0  0  0  0  0  0  0  0
   38.7650   22.8350   35.8230 C   0  0  0  0  0  0  0  0  0  0  0  0
   39.7850   22.2190   36.4540 N   0  0  0  0  0  0  0  0  0  0  0  0
   40.8570   21.9880   38.2180 H   0  0  0  0  0  0  0  0  0  0  0  0
   39.4820   23.6320   39.4960 H   0  0  0  0  0  0  0  0  0  0  0  0
   37.5910   24.7610   38.2870 H   0  0  0  0  0  0  0  0  0  0  0  0
   37.3640   21.6590   34.2310 N   0  0  0  0  0  0  0  0  0  0  0  0
   36.6490   21.9540   33.0310 C   0  0  0  0  0  0  0  0  0  0  0  0
   35.4600   21.0260   32.9330 C   0  0  0  0  0  0  0  0  0  0  0  0
   35.5380   19.9750   33.9370 N   0  0  0  0  0  0  0  0  0  0  0  0
   36.2650   19.2600   33.7290 H   0  0  0  0  0  0  0  0  0  0  0  0
   35.5790   20.4830   35.2790 C   0  0  0  0  0  0  0  0  0  0  0  0
   36.5240   21.6680   35.3900 C   0  0  0  0  0  0  0  0  0  0  0  0
  1  8  1  0  0  0  0
  2  1  1  0  0  0  0
  3  1  1  0  0  0  0
  4 10  1  0  0  0  0
  4  5  1  0  0  0  0
  5 11  1  0  0  0  0
  6 12  1  0  0  0  0
  6  5  2  0  0  0  0
  7  6  1  0  0  0  0
  8  7  2  0  0  0  0
  8  9  1  0  0  0  0
  9  4  2  0  0  0  0
 13  1  1  0  0  0  0
 13 19  1  0  0  0  0
 14 13  1  0  0  0  0
 15 14  1  0  0  0  0
 15 16  1  0  0  0  0
 16 18  1  0  0  0  0
 17 16  1  0  0  0  0
 18 19  1  0  0  0  0
M  END
>  <minimizedAffinity>
-3.35511017

>  <minimizedRMSD>
1.4200455

$$$$
