
 OpenBabel03262519313D

 41 45  0  0  0  0  0  0  0  0999 V2000
   42.6720   22.5160   36.4750 C   0  0  0  0  0  0  0  0  0  0  0  0
   42.6920   23.9030   36.5860 C   0  0  0  0  0  0  0  0  0  0  0  0
   43.9280   24.3680   36.2510 N   0  0  0  0  0  0  0  0  0  0  0  0
   44.7310   23.3390   35.9200 C   0  0  0  0  0  0  0  0  0  0  0  0
   46.0440   23.2470   35.5090 C   0  0  0  0  0  0  0  0  0  0  0  0
   46.6090   22.0200   35.2290 C   0  0  0  0  0  0  0  0  0  0  0  0
   45.8220   20.8580   35.3690 C   0  0  0  0  0  0  0  0  0  0  0  0
   44.4910   20.9690   35.7880 C   0  0  0  0  0  0  0  0  0  0  0  0
   43.9600   22.2080   36.0580 C   0  0  0  0  0  0  0  0  0  0  0  0
   41.8530   24.5230   36.8930 H   0  0  0  0  0  0  0  0  0  0  0  0
   44.2830   25.3420   36.2270 H   0  0  0  0  0  0  0  0  0  0  0  0
   46.6330   24.1580   35.4080 H   0  0  0  0  0  0  0  0  0  0  0  0
   47.6310   22.0070   34.9140 H   0  0  0  0  0  0  0  0  0  0  0  0
   46.2800   19.9120   35.1460 H   0  0  0  0  0  0  0  0  0  0  0  0
   43.8030   19.7050   35.9070 N   0  0  0  0  0  0  0  0  0  0  0  0
   43.0530   19.0820   34.8330 C   0  0  0  0  0  0  0  0  0  0  0  0
   43.1530   17.5820   34.8450 C   0  0  0  0  0  0  0  0  0  0  0  0
   42.9330   17.1770   36.2270 N   0  0  0  0  0  0  0  0  0  0  0  0
   41.9990   17.5590   36.4830 H   0  0  0  0  0  0  0  0  0  0  0  0
   43.9730   17.6360   37.0970 C   0  0  0  0  0  0  0  0  0  0  0  0
   43.9590   19.1420   37.2460 C   0  0  0  0  0  0  0  0  0  0  0  0
   41.5910   21.7200   36.7330 O   0  0  0  0  0  0  0  0  0  0  0  0
   40.2750   22.1200   36.7560 C   0  0  0  0  0  0  0  0  0  0  0  0
   39.8640   22.8680   37.8630 C   0  0  0  0  0  0  0  0  0  0  0  0
   38.5140   23.2800   37.8900 C   0  0  0  0  0  0  0  0  0  0  0  0
   37.6990   22.9410   36.8700 N   0  0  0  0  0  0  0  0  0  0  0  0
   38.1550   22.2130   35.8240 C   0  0  0  0  0  0  0  0  0  0  0  0
   39.4190   21.8150   35.7770 N   0  0  0  0  0  0  0  0  0  0  0  0
   37.3620   21.8130   34.7090 N   0  0  0  0  0  0  0  0  0  0  0  0
   37.7640   22.0770   33.4280 C   0  0  0  0  0  0  0  0  0  0  0  0
   36.9380   21.6560   32.3900 C   0  0  0  0  0  0  0  0  0  0  0  0
   35.7450   20.9900   32.6330 C   0  0  0  0  0  0  0  0  0  0  0  0
   35.0060   20.6150   31.6830 O   0  0  0  0  0  0  0  0  0  0  0  0
   35.3910   20.7530   33.9020 N   0  0  0  0  0  0  0  0  0  0  0  0
   36.1900   21.1600   34.9220 C   0  0  0  0  0  0  0  0  0  0  0  0
   35.8700   20.9440   36.1060 O   0  0  0  0  0  0  0  0  0  0  0  0
   40.4820   23.1630   38.7000 H   0  0  0  0  0  0  0  0  0  0  0  0
   38.1530   23.8620   38.7280 H   0  0  0  0  0  0  0  0  0  0  0  0
   38.7050   22.6010   33.2450 H   0  0  0  0  0  0  0  0  0  0  0  0
   37.2160   21.8440   31.3610 H   0  0  0  0  0  0  0  0  0  0  0  0
   34.4860   20.2480   34.0760 H   0  0  0  0  0  0  0  0  0  0  0  0
  1  2  2  0  0  0  0
  1 22  1  0  0  0  0
  2 10  1  0  0  0  0
  3  2  1  0  0  0  0
  4  9  1  0  0  0  0
  4  3  1  0  0  0  0
  5  4  2  0  0  0  0
  6  7  2  0  0  0  0
  6  5  1  0  0  0  0
  7  8  1  0  0  0  0
  8 15  1  0  0  0  0
  8  9  2  0  0  0  0
  9  1  1  0  0  0  0
 11  3  1  0  0  0  0
 12  5  1  0  0  0  0
 13  6  1  0  0  0  0
 14  7  1  0  0  0  0
 15 21  1  0  0  0  0
 16 17  1  0  0  0  0
 16 15  1  0  0  0  0
 17 18  1  0  0  0  0
 18 19  1  0  0  0  0
 18 20  1  0  0  0  0
 20 21  1  0  0  0  0
 22 23  1  0  0  0  0
 23 24  1  0  0  0  0
 24 25  2  0  0  0  0
 24 37  1  0  0  0  0
 25 38  1  0  0  0  0
 26 25  1  0  0  0  0
 27 26  2  0  0  0  0
 28 27  1  0  0  0  0
 28 23  2  0  0  0  0
 29 35  1  0  0  0  0
 29 27  1  0  0  0  0
 30 29  1  0  0  0  0
 31 32  1  0  0  0  0
 31 30  2  0  0  0  0
 32 34  1  0  0  0  0
 33 32  2  0  0  0  0
 34 41  1  0  0  0  0
 34 35  1  0  0  0  0
 35 36  2  0  0  0  0
 39 30  1  0  0  0  0
 40 31  1  0  0  0  0
M  END
>  <minimizedAffinity>
-5.61244106

>  <minimizedRMSD>
2.50034332

$$$$
