
 OpenBabel03262519553D

 30 33  0  0  1  0  0  0  0  0999 V2000
   39.8840   24.5400   31.5150 C   0  0  0  0  0  0  0  0  0  0  0  0
   39.9400   25.6410   30.6800 C   0  0  0  0  0  0  0  0  0  0  0  0
   39.1830   25.2640   29.6020 N   0  0  0  0  0  0  0  0  0  0  0  0
   38.7360   24.0290   29.8270 C   0  0  0  0  0  0  0  0  0  0  0  0
   39.1570   23.5480   31.0170 N   0  0  0  0  0  0  0  0  0  0  0  0
   40.4500   26.5790   30.8240 H   0  0  0  0  0  0  0  0  0  0  0  0
   38.1070   23.5080   29.1080 H   0  0  0  0  0  0  0  0  0  0  0  0
   40.5490   24.4560   32.8170 C   0  0  0  0  0  0  0  0  0  0  0  0
   41.7990   23.8760   32.9570 C   0  0  0  0  0  0  0  0  0  0  0  0
   42.4050   23.8120   34.2160 C   0  0  0  0  0  0  0  0  0  0  0  0
   41.7290   24.3310   35.2510 N   0  0  0  0  0  0  0  0  0  0  0  0
   40.5030   24.9010   35.1150 C   0  0  0  0  0  0  0  0  0  0  0  0
   39.9180   24.9630   33.9070 N   0  0  0  0  0  0  0  0  0  0  0  0
   42.3190   23.4670   32.1060 H   0  0  0  0  0  0  0  0  0  0  0  0
   43.3780   23.3620   34.3400 H   0  0  0  0  0  0  0  0  0  0  0  0
   39.9420   25.3250   35.9420 H   0  0  0  0  0  0  0  0  0  0  0  0
   38.8250   22.2500   31.5110 C   0  0  1  0  0  0  0  0  0  0  0  0
   38.5600   21.9640   32.9060 C   0  0  0  0  0  0  0  0  0  0  0  0
   37.3820   22.1370   31.9860 C   0  0  2  0  0  0  0  0  0  0  0  0
   39.1920   21.4190   30.8710 H   0  0  0  0  0  0  0  0  0  0  0  0
   38.7990   21.0010   33.3760 H   0  0  0  0  0  0  0  0  0  0  0  0
   38.7130   22.8080   33.6400 H   0  0  0  0  0  0  0  0  0  0  0  0
   36.7850   23.0760   32.0940 H   0  0  0  0  0  0  0  0  0  0  0  0
   36.6210   20.9760   31.6810 N   0  0  0  0  0  0  0  0  0  0  0  0
   35.2400   21.2440   32.0330 C   0  0  0  0  0  2  0  0  0  0  0  0
   34.3750   20.0140   32.0460 C   0  0  0  0  0  2  0  0  0  0  0  0
   34.9980   18.8640   31.4220 N   0  0  0  0  0  0  0  0  0  0  0  0
   34.3750   18.0490   31.6210 H   0  0  0  0  0  0  0  0  0  0  0  0
   36.3060   18.5820   31.9160 C   0  0  0  0  0  2  0  0  0  0  0  0
   37.0620   19.7930   32.3840 C   0  0  0  0  0  2  0  0  0  0  0  0
  1  8  1  0  0  0  0
  2  6  1  0  0  0  0
  2  1  2  0  0  0  0
  3  4  2  0  0  0  0
  3  2  1  0  0  0  0
  4  5  1  0  0  0  0
  5 17  1  0  0  0  0
  5  1  1  0  0  0  0
  7  4  1  0  0  0  0
  8  9  2  0  0  0  0
  8 13  1  0  0  0  0
  9 10  1  0  0  0  0
 10 15  1  0  0  0  0
 10 11  2  0  0  0  0
 12 11  1  0  0  0  0
 12 16  1  0  0  0  0
 13 12  2  0  0  0  0
 14  9  1  0  0  0  0
 17 20  1  6  0  0  0
 17 19  1  0  0  0  0
 17 18  1  0  0  0  0
 18 21  1  0  0  0  0
 18 22  1  0  0  0  0
 19 23  1  1  0  0  0
 19 18  1  0  0  0  0
 24 19  1  0  0  0  0
 24 25  1  0  0  0  0
 24 30  1  0  0  0  0
 25 26  1  0  0  0  0
 27 28  1  0  0  0  0
 27 29  1  0  0  0  0
 27 26  1  0  0  0  0
 29 30  1  0  0  0  0
M  END
>  <minimizedAffinity>
-3.14654446

>  <minimizedRMSD>
3.49622655

$$$$
