
 OpenBabel03262519493D

 42 46  0  0  1  0  0  0  0  0999 V2000
   37.3560   25.9240   32.9320 N   0  0  0  0  0  0  0  0  0  0  0  0
   36.8960   24.8590   32.2770 C   0  0  0  0  0  0  0  0  0  0  0  0
   35.8410   25.1360   31.4310 C   0  0  0  0  0  0  0  0  0  0  0  0
   35.6450   26.4480   31.5790 N   0  0  0  0  0  0  0  0  0  0  0  0
   36.5500   26.9100   32.4720 C   0  0  0  0  0  0  0  0  0  0  0  0
   37.3400   23.8580   32.4180 H   0  0  0  0  0  0  0  0  0  0  0  0
   35.3470   24.3880   30.8230 H   0  0  0  0  0  0  0  0  0  0  0  0
   36.5610   28.3940   32.8110 C   0  0  1  0  0  0  0  0  0  0  0  0
   35.7780   29.2870   31.9200 C   0  0  0  0  0  0  0  0  0  0  0  0
   35.2710   29.0040   33.2780 C   0  0  2  0  0  0  0  0  0  0  0  0
   37.4850   28.6260   33.3300 H   0  0  0  0  0  0  0  0  0  0  0  0
   36.0720   30.2710   31.5780 H   0  0  0  0  0  0  0  0  0  0  0  0
   35.2860   28.7370   31.0410 H   0  0  0  0  0  0  0  0  0  0  0  0
   34.4310   28.2330   33.2570 H   0  0  0  0  0  0  0  0  0  0  0  0
   35.1340   29.9370   34.3690 C   0  0  0  0  0  0  0  0  0  0  0  0
   36.1660   30.7260   34.9090 C   0  0  0  0  0  0  0  0  0  0  0  0
   35.7560   31.4500   35.9330 N   0  0  0  0  0  0  0  0  0  0  0  0
   34.4610   31.2250   36.1730 C   0  0  0  0  0  0  0  0  0  0  0  0
   33.5570   31.6990   37.0820 C   0  0  0  0  0  0  0  0  0  0  0  0
   32.2470   31.2930   37.0950 C   0  0  0  0  0  0  0  0  0  0  0  0
   31.8710   30.3750   36.1420 C   0  0  0  0  0  0  0  0  0  0  0  0
   32.7880   29.9060   35.2340 C   0  0  0  0  0  0  0  0  0  0  0  0
   34.1060   30.3080   35.2130 C   0  0  0  0  0  0  0  0  0  0  0  0
   36.3480   32.1140   36.4980 H   0  0  0  0  0  0  0  0  0  0  0  0
   38.3730   26.1520   33.8840 C   0  0  0  0  0  0  0  0  0  0  0  0
   39.1650   25.3620   33.7750 H   0  0  0  0  0  0  0  0  0  0  0  0
   38.8830   27.1260   33.6860 H   0  0  0  0  0  0  0  0  0  0  0  0
   37.8940   26.0990   35.2880 C   0  0  1  0  0  0  0  0  0  0  0  0
   36.7790   25.9580   35.2910 H   0  0  0  0  0  0  0  0  0  0  0  0
   38.5000   23.5060   37.9800 C   0  0  0  0  0  0  0  0  0  0  0  0
   37.8960   24.6050   37.3410 C   0  0  0  0  0  0  0  0  0  0  0  0
   38.4590   24.9690   36.0650 C   0  0  0  0  0  0  0  0  0  0  0  0
   39.5250   24.2500   35.5490 N   0  0  0  0  0  0  0  0  0  0  0  0
   40.0440   23.2190   36.2120 C   0  0  0  0  0  0  0  0  0  0  0  0
   39.5330   22.8410   37.4350 N   0  0  0  0  0  0  0  0  0  0  0  0
   38.0980   23.2130   38.9370 H   0  0  0  0  0  0  0  0  0  0  0  0
   37.0800   25.1700   37.7180 H   0  0  0  0  0  0  0  0  0  0  0  0
   40.8700   22.7390   35.7070 H   0  0  0  0  0  0  0  0  0  0  0  0
   38.1920   27.4160   35.9940 C   0  0  0  0  0  0  0  0  0  0  0  0
   38.4030   28.2440   35.3260 H   0  0  0  0  0  0  0  0  0  0  0  0
   37.4090   27.5720   36.7350 H   0  0  0  0  0  0  0  0  0  0  0  0
   39.1300   27.2290   36.6000 H   0  0  0  0  0  0  0  0  0  0  0  0
  1 25  1  0  0  0  0
  2  6  1  0  0  0  0
  2  1  1  0  0  0  0
  3  4  1  0  0  0  0
  3  2  2  0  0  0  0
  4  5  2  0  0  0  0
  5  8  1  0  0  0  0
  5  1  1  0  0  0  0
  7  3  1  0  0  0  0
  8 10  1  0  0  0  0
  8 11  1  1  0  0  0
  9  8  1  0  0  0  0
  9 10  1  0  0  0  0
 10 14  1  6  0  0  0
 10 15  1  0  0  0  0
 12  9  1  0  0  0  0
 13  9  1  0  0  0  0
 15 16  2  0  0  0  0
 15 23  1  0  0  0  0
 16 17  1  0  0  0  0
 17 18  1  0  0  0  0
 17 24  1  0  0  0  0
 18 19  1  0  0  0  0
 19 20  2  0  0  0  0
 21 20  1  0  0  0  0
 22 21  2  0  0  0  0
 23 22  1  0  0  0  0
 23 18  2  0  0  0  0
 25 28  1  0  0  0  0
 26 25  1  0  0  0  0
 27 25  1  0  0  0  0
 28 29  1  6  0  0  0
 28 39  1  0  0  0  0
 28 32  1  0  0  0  0
 30 36  1  0  0  0  0
 31 37  1  0  0  0  0
 31 30  2  0  0  0  0
 32 31  1  0  0  0  0
 33 32  2  0  0  0  0
 33 34  1  0  0  0  0
 34 35  2  0  0  0  0
 35 30  1  0  0  0  0
 38 34  1  0  0  0  0
 39 42  1  0  0  0  0
 39 41  1  0  0  0  0
 40 39  1  0  0  0  0
M  END
>  <minimizedAffinity>
-6.25994253

>  <minimizedRMSD>
1.28764582

$$$$
