
 OpenBabel03262519413D

 42 46  0  0  1  0  0  0  0  0999 V2000
   39.6790   25.3480   34.1910 N   0  0  0  0  0  0  0  0  0  0  0  0
   39.8890   25.5430   32.7730 C   0  0  0  0  0  0  0  0  0  0  0  0
   40.6750   26.8050   32.6540 C   0  0  0  0  0  0  0  0  0  0  0  0
   40.8900   27.2490   34.0910 C   0  0  0  0  0  0  0  0  0  0  0  0
   40.8700   25.8580   34.7910 C   0  0  2  0  0  0  0  0  0  0  0  0
   40.5510   24.7060   32.4120 H   0  0  0  0  0  0  0  0  0  0  0  0
   38.9600   25.6310   32.1880 H   0  0  0  0  0  0  0  0  0  0  0  0
   41.6310   26.7040   32.1040 H   0  0  0  0  0  0  0  0  0  0  0  0
   40.0760   27.6230   32.1620 H   0  0  0  0  0  0  0  0  0  0  0  0
   41.8950   27.7000   34.2410 H   0  0  0  0  0  0  0  0  0  0  0  0
   40.0620   27.8430   34.4850 H   0  0  0  0  0  0  0  0  0  0  0  0
   40.8230   26.0660   35.8640 H   0  0  0  0  0  0  0  0  0  0  0  0
   39.5840   23.9590   34.5280 C   0  0  0  0  0  0  0  0  0  0  0  0
   40.5080   23.3860   34.2840 H   0  0  0  0  0  0  0  0  0  0  0  0
   38.7570   23.4900   33.9550 H   0  0  0  0  0  0  0  0  0  0  0  0
   37.8690   24.1290   37.9060 C   0  0  0  0  0  0  0  0  0  0  0  0
   38.1090   24.3510   36.5530 C   0  0  0  0  0  0  0  0  0  0  0  0
   39.2620   23.7640   35.9770 C   0  0  0  0  0  0  0  0  0  0  0  0
   40.0710   23.0140   36.7820 N   0  0  0  0  0  0  0  0  0  0  0  0
   39.7850   22.8350   38.0880 C   0  0  0  0  0  0  0  0  0  0  0  0
   38.6850   23.3950   38.6350 N   0  0  0  0  0  0  0  0  0  0  0  0
   36.9600   24.6400   38.1860 H   0  0  0  0  0  0  0  0  0  0  0  0
   37.5080   24.9350   35.8600 H   0  0  0  0  0  0  0  0  0  0  0  0
   40.4630   22.2290   38.6760 H   0  0  0  0  0  0  0  0  0  0  0  0
   41.9820   25.1250   34.4830 O   0  0  0  0  0  0  0  0  0  0  0  0
   43.0990   25.4270   35.2280 C   0  0  2  0  0  0  0  0  0  0  0  0
   44.4030   25.2030   34.4990 C   0  0  0  0  0  0  0  0  0  0  0  0
   44.0220   24.3520   35.6950 C   0  0  1  0  0  0  0  0  0  0  0  0
   42.9080   26.1640   36.0160 H   0  0  0  0  0  0  0  0  0  0  0  0
   44.3760   24.6900   33.5170 H   0  0  0  0  0  0  0  0  0  0  0  0
   45.1830   25.9760   34.5740 H   0  0  0  0  0  0  0  0  0  0  0  0
   43.7920   23.2850   35.5690 H   0  0  0  0  0  0  0  0  0  0  0  0
   44.9070   24.6770   36.8640 C   0  0  0  0  0  0  0  0  0  0  0  0
   44.5950   25.5500   37.9200 C   0  0  0  0  0  0  0  0  0  0  0  0
   45.5720   25.6500   38.8100 N   0  0  0  0  0  0  0  0  0  0  0  0
   46.5700   24.8550   38.3890 C   0  0  0  0  0  0  0  0  0  0  0  0
   47.8110   24.5790   38.9250 C   0  0  0  0  0  0  0  0  0  0  0  0
   48.6690   23.7120   38.2940 C   0  0  0  0  0  0  0  0  0  0  0  0
   48.2690   23.1150   37.1040 C   0  0  0  0  0  0  0  0  0  0  0  0
   47.0230   23.4090   36.5920 C   0  0  0  0  0  0  0  0  0  0  0  0
   46.1700   24.2650   37.2110 C   0  0  0  0  0  0  0  0  0  0  0  0
   45.5470   26.2420   39.6680 H   0  0  0  0  0  0  0  0  0  0  0  0
  1 13  1  0  0  0  0
  1  5  1  0  0  0  0
  2  1  1  0  0  0  0
  3  2  1  0  0  0  0
  3  4  1  0  0  0  0
  4 10  1  0  0  0  0
  4 11  1  0  0  0  0
  4  5  1  0  0  0  0
  5 12  1  1  0  0  0
  6  2  1  0  0  0  0
  7  2  1  0  0  0  0
  8  3  1  0  0  0  0
  9  3  1  0  0  0  0
 13 18  1  0  0  0  0
 14 13  1  0  0  0  0
 15 13  1  0  0  0  0
 16 22  1  0  0  0  0
 16 21  1  0  0  0  0
 17 16  2  0  0  0  0
 18 17  1  0  0  0  0
 18 19  2  0  0  0  0
 19 20  1  0  0  0  0
 20 21  2  0  0  0  0
 20 24  1  0  0  0  0
 23 17  1  0  0  0  0
 25  5  1  0  0  0  0
 25 26  1  0  0  0  0
 26 28  1  0  0  0  0
 26 29  1  1  0  0  0
 27 31  1  0  0  0  0
 27 26  1  0  0  0  0
 27 28  1  0  0  0  0
 28 32  1  6  0  0  0
 28 33  1  0  0  0  0
 30 27  1  0  0  0  0
 33 41  1  0  0  0  0
 33 34  2  0  0  0  0
 34 35  1  0  0  0  0
 35 42  1  0  0  0  0
 36 35  1  0  0  0  0
 36 37  1  0  0  0  0
 38 37  2  0  0  0  0
 39 38  1  0  0  0  0
 40 39  2  0  0  0  0
 40 41  1  0  0  0  0
 41 36  2  0  0  0  0
M  END
>  <minimizedAffinity>
-5.49637079

>  <minimizedRMSD>
3.28790069

$$$$
