REMARK  Name = 
REMARK  4 active torsions:
REMARK  status: ('A' for Active; 'I' for Inactive)
REMARK    1  A    between atoms: C_1  and  C_6
REMARK    2  A    between atoms: N_5  and  C_12
REMARK    3  A    between atoms: C_14  and  C_15
REMARK    4  A    between atoms: C_14  and  C_27
REMARK                            x       y       z     vdW  Elec       q    Type
REMARK                         _______ _______ _______ _____ _____    ______ ____
ROOT
ATOM      1  C   UNL     1      38.536  23.948  35.902  0.00  0.00    +0.000 C 
ATOM      2  C   UNL     1      38.080  25.227  36.365  0.00  0.00    +0.000 C 
ATOM      3  C   UNL     1      37.540  23.921  37.026  0.00  0.00    +0.000 C 
ATOM      4  H   UNL     1      39.603  23.652  36.179  0.00  0.00    +0.000 HD
ATOM      5  H   UNL     1      38.703  25.854  37.013  0.00  0.00    +0.000 HD
ATOM      6  H   UNL     1      37.418  25.775  35.719  0.00  0.00    +0.000 HD
ENDROOT
BRANCH   3   7
ATOM      7  C   UNL     1      36.074  23.962  37.017  0.00  0.00    +0.000 A 
ATOM      8  C   UNL     1      35.743  25.160  36.329  0.00  0.00    +0.000 A 
ATOM      9  N   UNL     1      34.389  25.375  36.320  0.00  0.00    +0.000 N 
ATOM     10  C   UNL     1      33.820  24.356  36.978  0.00  0.00    +0.000 A 
ATOM     11  C   UNL     1      32.552  23.893  37.349  0.00  0.00    +0.000 A 
ATOM     12  C   UNL     1      32.375  22.716  38.048  0.00  0.00    +0.000 A 
ATOM     13  C   UNL     1      33.468  21.934  38.415  0.00  0.00    +0.000 A 
ATOM     14  C   UNL     1      34.720  22.361  38.068  0.00  0.00    +0.000 A 
ATOM     15  C   UNL     1      34.832  23.533  37.380  0.00  0.00    +0.000 A 
ATOM     16  H   UNL     1      33.694  26.069  35.968  0.00  0.00    +0.000 HD
ENDBRANCH   3   7
BRANCH   1  21
ATOM     17  C   UNL     1      37.870  23.698  33.502  0.00  0.00    +0.000 A 
ATOM     18  C   UNL     1      37.465  22.657  32.669  0.00  0.00    +0.000 A 
ATOM     19  N   UNL     1      37.481  21.565  33.485  0.00  0.00    +0.000 NA
ATOM     20  C   UNL     1      37.868  21.966  34.694  0.00  0.00    +0.000 A 
ATOM     21  N   UNL     1      38.112  23.272  34.729  0.00  0.00    +0.000 N 
ATOM     22  H   UNL     1      37.210  22.761  31.620  0.00  0.00    +0.000 HD
ATOM     23  H   UNL     1      37.922  21.170  35.450  0.00  0.00    +0.000 HD
BRANCH  17  24
ATOM     24  C   UNL     1      38.019  25.084  33.075  0.00  0.00    +0.000 A 
ATOM     25  C   UNL     1      39.303  25.582  32.770  0.00  0.00    +0.000 A 
ATOM     26  C   UNL     1      39.389  26.934  32.359  0.00  0.00    +0.000 A 
ATOM     27  N   UNL     1      38.237  27.651  32.288  0.00  0.00    +0.000 NA
ATOM     28  C   UNL     1      37.027  27.128  32.591  0.00  0.00    +0.000 A 
ATOM     29  N   UNL     1      36.916  25.853  32.983  0.00  0.00    +0.000 NA
ATOM     30  H   UNL     1      40.113  24.896  32.873  0.00  0.00    +0.000 HD
ATOM     31  H   UNL     1      40.363  27.293  32.133  0.00  0.00    +0.000 HD
ATOM     32  H   UNL     1      36.223  27.832  32.482  0.00  0.00    +0.000 HD
ENDBRANCH  17  24
ENDBRANCH   1  21
BRANCH   3  33
ATOM     33  C   UNL     1      38.142  23.767  38.428  0.00  0.00    +0.000 C 
ATOM     34  F   UNL     1      37.518  22.700  39.065  0.00  0.00    +0.000 F 
ATOM     35  F   UNL     1      39.514  23.346  38.306  0.00  0.00    +0.000 F 
ATOM     36  F   UNL     1      38.130  24.898  39.142  0.00  0.00    +0.000 F 
ENDBRANCH   3  33
TORSDOF 4
