
     RDKit          3D

 47 51  0  0  0  0  0  0  0  0999 V2000
   38.0772   25.7645   35.4200 C   0  0  1  0  0  0  0  0  0  0  0  0
   38.6424   23.3730   38.3024 C   0  0  0  0  0  0  0  0  0  0  0  0
   38.0354   24.4105   37.5682 C   0  0  0  0  0  0  0  0  0  0  0  0
   38.6396   24.7050   36.2934 C   0  0  0  0  0  0  0  0  0  0  0  0
   39.7436   23.9838   35.8665 N   0  0  0  0  0  0  0  0  0  0  0  0
   40.2620   23.0155   36.6174 C   0  0  0  0  0  0  0  0  0  0  0  0
   39.7132   22.7041   37.8421 N   0  0  0  0  0  0  0  0  0  0  0  0
   38.3463   27.1358   36.0284 C   0  0  0  0  0  0  0  0  0  0  0  0
   38.5828   25.7159   34.0257 C   0  0  0  0  0  0  0  0  0  0  0  0
   37.5813   25.4363   33.0717 N   0  0  0  0  0  0  0  0  0  0  0  0
   37.0567   24.3275   32.5486 C   0  0  0  0  0  0  0  0  0  0  0  0
   36.0541   24.5645   31.6296 C   0  0  0  0  0  0  0  0  0  0  0  0
   35.9613   25.8949   31.5890 N   0  0  0  0  0  0  0  0  0  0  0  0
   36.8724   26.4071   32.4484 C   0  0  0  0  0  0  0  0  0  0  0  0
   36.9926   27.9179   32.5816 C   0  0  1  0  0  0  0  0  0  0  0  0
   35.8480   28.7243   32.0887 C   0  0  0  0  0  0  0  0  0  0  0  0
   36.0652   28.6006   33.5453 C   0  0  2  0  0  0  0  0  0  0  0  0
   36.9642   25.6095   35.4144 H   0  0  0  0  0  0  0  0  0  0  0  0
   38.2093   23.1332   39.2599 H   0  0  0  0  0  0  0  0  0  0  0  0
   37.1913   24.9753   37.8740 H   0  0  0  0  0  0  0  0  0  0  0  0
   41.1198   22.5262   36.1782 H   0  0  0  0  0  0  0  0  0  0  0  0
   38.5607   27.9132   35.3029 H   0  0  0  0  0  0  0  0  0  0  0  0
   37.5474   27.3380   36.7404 H   0  0  0  0  0  0  0  0  0  0  0  0
   39.2738   27.0081   36.6643 H   0  0  0  0  0  0  0  0  0  0  0  0
   39.3657   24.9114   33.9864 H   0  0  0  0  0  0  0  0  0  0  0  0
   39.1097   26.6684   33.7717 H   0  0  0  0  0  0  0  0  0  0  0  0
   37.4133   23.3262   32.8440 H   0  0  0  0  0  0  0  0  0  0  0  0
   35.5202   23.7788   31.1093 H   0  0  0  0  0  0  0  0  0  0  0  0
   38.0442   28.1862   32.5653 H   0  0  0  0  0  0  0  0  0  0  0  0
   35.9070   29.6589   31.5475 H   0  0  0  0  0  0  0  0  0  0  0  0
   35.0142   28.0921   31.6188 H   0  0  0  0  0  0  0  0  0  0  0  0
   35.3458   27.8485   34.0114 H   0  0  0  0  0  0  0  0  0  0  0  0
   36.4371   29.6498   34.4622 C   0  0  0  0  0  0  0  0  0  0  0  0
   37.7502   30.0682   34.7440 C   0  0  0  0  0  0  0  0  0  0  0  0
   37.7857   31.0145   35.6614 N   0  0  0  0  0  0  0  0  0  0  0  0
   36.5487   31.3140   36.0700 C   0  0  0  0  0  0  0  0  0  0  0  0
   36.0232   32.1976   36.9699 C   0  0  0  0  0  0  0  0  0  0  0  0
   34.6744   32.3060   37.1911 C   0  0  0  0  0  0  0  0  0  0  0  0
   33.8563   31.4763   36.4589 C   0  0  0  0  0  0  0  0  0  0  0  0
   34.3956   30.5924   35.5581 C   0  0  0  0  0  0  0  0  0  0  0  0
   35.7499   30.4759   35.3300 C   0  0  0  0  0  0  0  0  0  0  0  0
   38.6642   29.6716   34.2708 H   0  0  0  0  0  0  0  0  0  0  0  0
   38.6534   31.4824   36.0347 H   0  0  0  0  0  0  0  0  0  0  0  0
   36.6971   32.8285   37.5216 H   0  0  0  0  0  0  0  0  0  0  0  0
   34.2168   32.9912   37.8934 H   0  0  0  0  0  0  0  0  0  0  0  0
   32.7849   31.5234   36.5964 H   0  0  0  0  0  0  0  0  0  0  0  0
   33.7127   29.9765   35.0031 H   0  0  0  0  0  0  0  0  0  0  0  0
  1  8  1  0
  1  4  1  0
  3  2  2  0
  4  3  1  0
  5  4  2  0
  5  6  1  0
  6  7  2  0
  7  2  1  0
  9  1  1  0
 10  9  1  0
 11 10  1  0
 12 11  2  0
 13 12  1  0
 13 14  2  0
 14 15  1  0
 14 10  1  0
 15 17  1  0
 16 15  1  0
 16 17  1  0
  1 18  1  6
  2 19  1  0
  3 20  1  0
  6 21  1  0
  8 22  1  0
  8 23  1  0
  8 24  1  0
  9 25  1  0
  9 26  1  0
 11 27  1  0
 12 28  1  0
 15 29  1  6
 16 30  1  0
 16 31  1  0
 17 32  1  1
 33 34  2  0
 34 35  1  0
 35 36  1  0
 36 37  2  0
 37 38  1  0
 38 39  2  0
 39 40  1  0
 40 41  2  0
 41 33  1  0
 41 36  1  0
 34 42  1  0
 35 43  1  0
 37 44  1  0
 38 45  1  0
 39 46  1  0
 40 47  1  0
 17 33  1  0
M  ISO  8  18   8  19  14  20  14  21  14  22   8  23   8  24   8  25   8
M  ISO  7  26   8  27  14  28  14  29  13  30  13  31  13  32  13
M  END
>  <DihAtoms>  (1) 
14,16,32,33

>  <DihDeg>  (1) 
-129.88020208540027

$$$$
