
 OpenBabel03262518553D

 29 32  0  0  0  0  0  0  0  0999 V2000
   39.8680   22.7040   37.4640 C   0  0  0  0  0  0  0  0  0  0  0  0
   39.2240   23.4890   38.4470 C   0  0  0  0  0  0  0  0  0  0  0  0
   37.8250   23.6530   38.3190 C   0  0  0  0  0  0  0  0  0  0  0  0
   37.1860   23.0580   37.2790 N   0  0  0  0  0  0  0  0  0  0  0  0
   37.8610   22.3070   36.3550 C   0  0  0  0  0  0  0  0  0  0  0  0
   39.1970   22.1280   36.4420 N   0  0  0  0  0  0  0  0  0  0  0  0
   37.2000   21.6800   35.2600 N   0  0  0  0  0  0  0  0  0  0  0  0
   37.8290   21.7450   34.0610 C   0  0  0  0  0  0  0  0  0  0  0  0
   37.2090   21.1420   32.9800 C   0  0  0  0  0  0  0  0  0  0  0  0
   35.9880   20.5100   33.1760 C   0  0  0  0  0  0  0  0  0  0  0  0
   35.4310   19.9630   32.1770 O   0  0  0  0  0  0  0  0  0  0  0  0
   35.4040   20.4750   34.3940 N   0  0  0  0  0  0  0  0  0  0  0  0
   36.0170   21.0660   35.4490 C   0  0  0  0  0  0  0  0  0  0  0  0
   35.5500   21.0780   36.5950 O   0  0  0  0  0  0  0  0  0  0  0  0
   40.9420   22.5160   37.4710 H   0  0  0  0  0  0  0  0  0  0  0  0
   39.8140   23.9200   39.2340 H   0  0  0  0  0  0  0  0  0  0  0  0
   37.3220   24.2440   39.0540 H   0  0  0  0  0  0  0  0  0  0  0  0
   38.7840   22.2520   33.9610 H   0  0  0  0  0  0  0  0  0  0  0  0
   34.4850   19.9980   34.5420 H   0  0  0  0  0  0  0  0  0  0  0  0
   37.8910   21.2170   31.6940 C   0  0  0  0  0  0  0  0  0  0  0  0
   38.3440   20.2120   30.8410 C   0  0  0  0  0  0  0  0  0  0  0  0
   38.9130   20.8220   29.7690 N   0  0  0  0  0  0  0  0  0  0  0  0
   38.8450   22.1640   29.9000 C   0  0  0  0  0  0  0  0  0  0  0  0
   39.2690   23.2120   29.1010 C   0  0  0  0  0  0  0  0  0  0  0  0
   39.0620   24.5390   29.4900 C   0  0  0  0  0  0  0  0  0  0  0  0
   38.4280   24.8020   30.6870 C   0  0  0  0  0  0  0  0  0  0  0  0
   38.0090   23.7480   31.4760 C   0  0  0  0  0  0  0  0  0  0  0  0
   38.2060   22.4220   31.1010 C   0  0  0  0  0  0  0  0  0  0  0  0
   39.3380   20.3060   28.9690 H   0  0  0  0  0  0  0  0  0  0  0  0
  1 15  1  0  0  0  0
  1  2  1  0  0  0  0
  2 16  1  0  0  0  0
  3  2  2  0  0  0  0
  3 17  1  0  0  0  0
  4  3  1  0  0  0  0
  5  6  1  0  0  0  0
  5  4  2  0  0  0  0
  6  1  2  0  0  0  0
  7 13  1  0  0  0  0
  7  5  1  0  0  0  0
  8  7  1  0  0  0  0
  9 10  1  0  0  0  0
  9  8  2  0  0  0  0
 10 12  1  0  0  0  0
 11 10  2  0  0  0  0
 12 19  1  0  0  0  0
 12 13  1  0  0  0  0
 13 14  2  0  0  0  0
 18  8  1  0  0  0  0
 20  9  1  0  0  0  0
 21 20  2  0  0  0  0
 22 23  1  0  0  0  0
 22 21  1  0  0  0  0
 23 28  1  0  0  0  0
 24 25  1  0  0  0  0
 24 23  2  0  0  0  0
 25 26  2  0  0  0  0
 26 27  1  0  0  0  0
 28 27  2  0  0  0  0
 28 20  1  0  0  0  0
 29 22  1  0  0  0  0
M  END
>  <minimizedAffinity>
-5.71304512

>  <minimizedRMSD>
0.746290326

$$$$
