
     RDKit          3D

 40 43  0  0  0  0  0  0  0  0999 V2000
   43.1265   23.3336   36.5349 C   0  0  0  0  0  0  0  0  0  0  0  0
   41.7330   23.1058   36.4038 C   0  0  0  0  0  0  0  0  0  0  0  0
   41.1744   24.0403   35.6270 C   0  0  0  0  0  0  0  0  0  0  0  0
   41.9001   25.0751   35.0485 N   0  0  0  0  0  0  0  0  0  0  0  0
   43.2084   25.2222   35.2180 C   0  0  0  0  0  0  0  0  0  0  0  0
   43.8217   24.3400   35.9696 N   0  0  0  0  0  0  0  0  0  0  0  0
   41.2375   21.9689   37.0887 C   0  0  0  0  0  0  0  0  0  0  0  0
   40.4839   22.3169   38.2371 F   0  0  0  0  0  0  0  0  0  0  0  0
   42.0350   21.1887   37.8394 F   0  0  0  0  0  0  0  0  0  0  0  0
   40.1467   21.2872   36.5463 F   0  0  0  0  0  0  0  0  0  0  0  0
   39.7884   23.9138   35.3818 C   0  0  0  0  0  0  0  0  0  0  0  0
   39.0236   25.0986   35.7215 C   0  0  0  0  0  0  0  0  0  0  0  0
   37.7756   24.6698   36.5099 C   0  0  2  0  0  0  0  0  0  0  0  0
   38.0015   24.3746   37.9152 C   0  0  0  0  0  0  0  0  0  0  0  0
   37.5509   23.3245   36.9312 C   0  0  1  0  0  0  0  0  0  0  0  0
   43.7767   22.6716   37.1390 H   0  0  0  0  0  0  0  0  0  0  0  0
   43.6479   26.0655   34.7141 H   0  0  0  0  0  0  0  0  0  0  0  0
   39.7628   23.9098   34.2271 H   0  0  0  0  0  0  0  0  0  0  0  0
   39.2242   23.0411   35.5686 H   0  0  0  0  0  0  0  0  0  0  0  0
   39.6277   25.7011   36.4665 H   0  0  0  0  0  0  0  0  0  0  0  0
   38.8218   25.8112   34.9124 H   0  0  0  0  0  0  0  0  0  0  0  0
   36.9120   25.2594   36.1292 H   0  0  0  0  0  0  0  0  0  0  0  0
   37.2729   24.4923   38.7335 H   0  0  0  0  0  0  0  0  0  0  0  0
   38.9930   24.4936   38.3017 H   0  0  0  0  0  0  0  0  0  0  0  0
   38.0063   22.4517   37.2647 H   0  0  0  0  0  0  0  0  0  0  0  0
   36.0874   22.9203   36.8971 C   0  0  0  0  0  0  0  0  0  0  0  0
   35.1707   23.8726   37.3276 C   0  0  0  0  0  0  0  0  0  0  0  0
   33.9639   23.2807   37.2405 N   0  0  0  0  0  0  0  0  0  0  0  0
   34.0811   22.0033   36.7753 C   0  0  0  0  0  0  0  0  0  0  0  0
   33.2098   20.9757   36.4919 C   0  0  0  0  0  0  0  0  0  0  0  0
   33.7232   19.7701   36.0031 C   0  0  0  0  0  0  0  0  0  0  0  0
   35.0886   19.5716   35.7920 C   0  0  0  0  0  0  0  0  0  0  0  0
   35.9193   20.6317   36.0915 C   0  0  0  0  0  0  0  0  0  0  0  0
   35.4301   21.8081   36.5686 C   0  0  0  0  0  0  0  0  0  0  0  0
   35.2387   24.9110   37.6886 H   0  0  0  0  0  0  0  0  0  0  0  0
   33.0282   23.6891   37.4808 H   0  0  0  0  0  0  0  0  0  0  0  0
   32.1786   21.1624   36.6645 H   0  0  0  0  0  0  0  0  0  0  0  0
   32.9785   19.0026   35.8012 H   0  0  0  0  0  0  0  0  0  0  0  0
   35.4023   18.6032   35.4088 H   0  0  0  0  0  0  0  0  0  0  0  0
   36.9628   20.4375   35.9009 H   0  0  0  0  0  0  0  0  0  0  0  0
  2  1  2  0
  2  7  1  0
  3  2  1  0
  4  5  1  0
  4  3  2  0
  5  6  2  0
  6  1  1  0
  7  9  1  0
  7  8  1  0
 10  7  1  0
 11  3  1  0
 11 12  1  0
 12 13  1  0
 13 15  1  0
 13 14  1  0
 15 14  1  0
  1 16  1  0
  5 17  1  0
 11 18  1  0
 11 19  1  0
 12 20  1  0
 12 21  1  0
 13 22  1  1
 14 23  1  0
 14 24  1  0
 15 25  1  6
 26 27  2  0
 27 28  1  0
 28 29  1  0
 29 30  2  0
 30 31  1  0
 31 32  2  0
 32 33  1  0
 33 34  2  0
 34 26  1  0
 34 29  1  0
 27 35  1  0
 28 36  1  0
 30 37  1  0
 31 38  1  0
 32 39  1  0
 33 40  1  0
 15 26  1  0
M  ISO  8  16  14  17  14  18   8  19   8  20   8  21   8  22  13  23  13
M  ISO  2  24  13  25  13
M  END
>  <DihAtoms>  (1) 
12,14,25,26

>  <DihDeg>  (1) 
64.72694160866166

$$$$
