
     RDKit          3D

 40 43  0  0  0  0  0  0  0  0999 V2000
   38.2145   24.3298   36.8051 C   0  0  1  0  0  0  0  0  0  0  0  0
   41.0237   21.8892   37.4831 C   0  0  0  0  0  0  0  0  0  0  0  0
   39.9723   22.7671   37.7534 C   0  0  0  0  0  0  0  0  0  0  0  0
   39.3256   23.3715   36.6241 C   0  0  0  0  0  0  0  0  0  0  0  0
   39.7742   23.0537   35.3643 N   0  0  0  0  0  0  0  0  0  0  0  0
   40.7785   22.2131   35.1560 C   0  0  0  0  0  0  0  0  0  0  0  0
   41.4117   21.6231   36.2237 N   0  0  0  0  0  0  0  0  0  0  0  0
   37.7902   24.3964   38.2610 C   0  0  0  0  0  0  0  0  0  0  0  0
   38.5866   25.7174   36.3424 C   0  0  0  0  0  0  0  0  0  0  0  0
   37.9409   26.1020   35.1577 N   0  0  0  0  0  0  0  0  0  0  0  0
   37.6707   25.4820   33.9718 C   0  0  0  0  0  0  0  0  0  0  0  0
   36.9494   26.2266   33.0700 C   0  0  0  0  0  0  0  0  0  0  0  0
   36.7571   27.3733   33.7215 N   0  0  0  0  0  0  0  0  0  0  0  0
   37.3516   27.3039   34.9719 C   0  0  0  0  0  0  0  0  0  0  0  0
   37.3326   24.0454   36.2015 H   0  0  0  0  0  0  0  0  0  0  0  0
   41.4948   21.4466   38.3483 H   0  0  0  0  0  0  0  0  0  0  0  0
   39.6295   23.0081   38.7516 H   0  0  0  0  0  0  0  0  0  0  0  0
   41.1554   21.9420   34.1871 H   0  0  0  0  0  0  0  0  0  0  0  0
   37.6268   23.4020   38.6953 H   0  0  0  0  0  0  0  0  0  0  0  0
   38.5214   25.0153   38.8171 H   0  0  0  0  0  0  0  0  0  0  0  0
   36.8231   24.9638   38.3132 H   0  0  0  0  0  0  0  0  0  0  0  0
   39.6815   25.7408   36.2079 H   0  0  0  0  0  0  0  0  0  0  0  0
   38.3407   26.4136   37.1694 H   0  0  0  0  0  0  0  0  0  0  0  0
   38.0066   24.4663   33.7626 H   0  0  0  0  0  0  0  0  0  0  0  0
   36.6487   25.9106   32.1047 H   0  0  0  0  0  0  0  0  0  0  0  0
   37.1539   28.5100   35.7526 C   0  0  0  0  0  0  0  0  0  0  0  0
   38.1551   29.3936   36.1882 C   0  0  0  0  0  0  0  0  0  0  0  0
   37.6850   30.3922   36.9470 N   0  0  0  0  0  0  0  0  0  0  0  0
   36.3743   30.2255   37.0536 C   0  0  0  0  0  0  0  0  0  0  0  0
   35.4429   30.9692   37.7446 C   0  0  0  0  0  0  0  0  0  0  0  0
   34.1212   30.6030   37.7506 C   0  0  0  0  0  0  0  0  0  0  0  0
   33.7652   29.4835   37.0533 C   0  0  0  0  0  0  0  0  0  0  0  0
   34.7277   28.7746   36.3793 C   0  0  0  0  0  0  0  0  0  0  0  0
   36.0565   29.0937   36.3364 C   0  0  0  0  0  0  0  0  0  0  0  0
   39.2236   29.3170   35.9575 H   0  0  0  0  0  0  0  0  0  0  0  0
   38.2531   31.1546   37.3701 H   0  0  0  0  0  0  0  0  0  0  0  0
   35.7578   31.8627   38.2955 H   0  0  0  0  0  0  0  0  0  0  0  0
   33.3848   31.1766   38.2864 H   0  0  0  0  0  0  0  0  0  0  0  0
   32.7389   29.1881   37.0520 H   0  0  0  0  0  0  0  0  0  0  0  0
   34.3792   27.8921   35.8725 H   0  0  0  0  0  0  0  0  0  0  0  0
  1  8  1  0
  2  3  2  0
  4  1  1  0
  4  3  1  0
  5  4  2  0
  6  5  1  0
  6  7  2  0
  7  2  1  0
  9  1  1  0
 10  9  1  0
 11 10  1  0
 12 13  1  0
 12 11  2  0
 13 14  2  0
 14 10  1  0
  1 15  1  6
  2 16  1  0
  3 17  1  0
  6 18  1  0
  8 19  1  0
  8 20  1  0
  8 21  1  0
  9 22  1  0
  9 23  1  0
 11 24  1  0
 12 25  1  0
 26 27  2  0
 27 28  1  0
 28 29  1  0
 29 30  2  0
 30 31  1  0
 31 32  2  0
 32 33  1  0
 33 34  2  0
 34 26  1  0
 34 29  1  0
 27 35  1  0
 28 36  1  0
 30 37  1  0
 31 38  1  0
 32 39  1  0
 33 40  1  0
 14 26  1  0
M  ISO  8  15   8  16  14  17  14  18  14  19   8  20   8  21   8  22   8
M  ISO  3  23   8  24  14  25  14
M  END
>  <DihAtoms>  (1) 
12,13,25,26

>  <DihDeg>  (1) 
34.02890955370858

$$$$
