
 OpenBabel03262517363D

 37 41  0  0  0  0  0  0  0  0999 V2000
   37.9900   20.7280   31.0830 N   0  0  0  0  0  0  0  0  0  0  0  0
   38.7860   21.5520   30.1490 C   0  0  0  0  0  0  0  0  0  0  0  0
   39.4600   20.5290   29.3030 C   0  0  0  0  0  0  0  0  0  0  0  0
   38.4130   19.9990   28.5250 O   0  0  0  0  0  0  0  0  0  0  0  0
   37.6280   19.1380   29.3020 C   0  0  0  0  0  0  0  0  0  0  0  0
   37.3710   19.4790   30.7470 C   0  0  0  0  0  0  0  0  0  0  0  0
   39.4770   22.1810   30.7160 H   0  0  0  0  0  0  0  0  0  0  0  0
   38.0510   22.1580   29.5830 H   0  0  0  0  0  0  0  0  0  0  0  0
   39.9770   19.7720   29.8990 H   0  0  0  0  0  0  0  0  0  0  0  0
   40.1610   21.0590   28.6000 H   0  0  0  0  0  0  0  0  0  0  0  0
   37.1500   18.1900   29.0160 H   0  0  0  0  0  0  0  0  0  0  0  0
   36.5930   18.5290   31.4190 C   0  0  0  0  0  0  0  0  0  0  0  0
   35.2360   18.7220   31.6200 C   0  0  0  0  0  0  0  0  0  0  0  0
   34.6520   17.6560   32.1760 N   0  0  0  0  0  0  0  0  0  0  0  0
   35.5720   16.6980   32.3770 C   0  0  0  0  0  0  0  0  0  0  0  0
   35.4740   15.4190   32.8800 C   0  0  0  0  0  0  0  0  0  0  0  0
   36.5940   14.6150   32.9270 C   0  0  0  0  0  0  0  0  0  0  0  0
   37.7810   15.1400   32.4600 C   0  0  0  0  0  0  0  0  0  0  0  0
   37.8260   16.4150   31.9710 C   0  0  0  0  0  0  0  0  0  0  0  0
   36.7400   17.2530   31.9070 C   0  0  0  0  0  0  0  0  0  0  0  0
   33.6370   17.5560   32.4290 H   0  0  0  0  0  0  0  0  0  0  0  0
   38.2590   22.1000   34.8900 C   0  0  0  0  0  0  0  0  0  0  0  0
   37.0300   21.7580   34.5390 C   0  0  0  0  0  0  0  0  0  0  0  0
   36.6050   21.2880   33.3760 C   0  0  0  0  0  0  0  0  0  0  0  0
   37.7510   21.1820   32.4580 C   0  0  0  0  0  0  0  0  0  0  0  0
   39.2480   21.7780   33.4010 S   0  0  0  0  0  0  0  0  0  0  0  0
   36.0980   21.7970   35.1550 H   0  0  0  0  0  0  0  0  0  0  0  0
   35.7940   20.9600   32.8090 H   0  0  0  0  0  0  0  0  0  0  0  0
   40.0110   22.8030   37.9570 C   0  0  0  0  0  0  0  0  0  0  0  0
   39.0720   23.4660   38.7360 C   0  0  0  0  0  0  0  0  0  0  0  0
   37.8190   23.6890   38.2270 C   0  0  0  0  0  0  0  0  0  0  0  0
   37.5610   23.2390   36.9600 N   0  0  0  0  0  0  0  0  0  0  0  0
   38.4940   22.5950   36.2180 C   0  0  0  0  0  0  0  0  0  0  0  0
   39.7140   22.3790   36.7180 N   0  0  0  0  0  0  0  0  0  0  0  0
   40.9690   22.6690   38.4290 H   0  0  0  0  0  0  0  0  0  0  0  0
   39.2050   23.8480   39.7390 H   0  0  0  0  0  0  0  0  0  0  0  0
   36.9530   24.1760   38.6560 H   0  0  0  0  0  0  0  0  0  0  0  0
  1 25  1  0  0  0  0
  2  7  1  0  0  0  0
  2  1  1  0  0  0  0
  3  9  1  0  0  0  0
  3  2  1  0  0  0  0
  4  5  1  0  0  0  0
  4  3  1  0  0  0  0
  5  6  2  0  0  0  0
  6  1  1  0  0  0  0
  6 12  1  0  0  0  0
  8  2  1  0  0  0  0
 10  3  1  0  0  0  0
 11  5  1  0  0  0  0
 12 13  2  0  0  0  0
 12 20  1  0  0  0  0
 13 14  1  0  0  0  0
 14 15  1  0  0  0  0
 14 21  1  0  0  0  0
 15 16  1  0  0  0  0
 16 17  2  0  0  0  0
 18 17  1  0  0  0  0
 19 18  2  0  0  0  0
 20 19  1  0  0  0  0
 20 15  2  0  0  0  0
 22 33  1  0  0  0  0
 23 22  2  0  0  0  0
 23 27  1  0  0  0  0
 24 23  1  0  0  0  0
 25 24  2  0  0  0  0
 25 26  1  0  0  0  0
 26 22  1  0  0  0  0
 28 24  1  0  0  0  0
 29 35  1  0  0  0  0
 29 30  1  0  0  0  0
 30 36  1  0  0  0  0
 31 37  1  0  0  0  0
 31 30  2  0  0  0  0
 32 31  1  0  0  0  0
 33 34  1  0  0  0  0
 33 32  2  0  0  0  0
 34 29  2  0  0  0  0
M  END
>  <minimizedAffinity>
-5.79138279

>  <minimizedRMSD>
0.967390776

$$$$
