REMARK  Name = 
REMARK  3 active torsions:
REMARK  status: ('A' for Active; 'I' for Inactive)
REMARK    1  A    between atoms: C_1  and  C_16
REMARK    2  A    between atoms: C_2  and  N_7
REMARK    3  A    between atoms: C_24  and  C_37
REMARK                            x       y       z     vdW  Elec       q    Type
REMARK                         _______ _______ _______ _____ _____    ______ ____
ROOT
ATOM      1  C   UNL     1      38.711  24.494  32.231  0.00  0.00    +0.000 A 
ATOM      2  C   UNL     1      39.096  23.163  32.339  0.00  0.00    +0.000 A 
ATOM      3  C   UNL     1      38.227  22.110  32.038  0.00  0.00    +0.000 A 
ATOM      4  C   UNL     1      36.933  22.384  31.618  0.00  0.00    +0.000 A 
ATOM      5  C   UNL     1      36.529  23.697  31.504  0.00  0.00    +0.000 A 
ATOM      6  C   UNL     1      35.254  23.966  31.091  0.00  0.00    +0.000 A 
ATOM      7  C   UNL     1      34.791  25.259  30.956  0.00  0.00    +0.000 A 
ATOM      8  C   UNL     1      35.680  26.291  31.256  0.00  0.00    +0.000 A 
ATOM      9  C   UNL     1      36.963  25.967  31.670  0.00  0.00    +0.000 A 
ATOM     10  C   UNL     1      37.426  24.695  31.811  0.00  0.00    +0.000 A 
ATOM     11  H   UNL     1      40.115  22.988  32.671  0.00  0.00    +0.000 HD
ATOM     12  H   UNL     1      38.565  21.086  32.133  0.00  0.00    +0.000 HD
ATOM     13  H   UNL     1      36.306  21.529  31.401  0.00  0.00    +0.000 HD
ATOM     14  H   UNL     1      34.617  23.117  30.874  0.00  0.00    +0.000 HD
ATOM     15  H   UNL     1      33.753  25.331  30.619  0.00  0.00    +0.000 HD
ATOM     16  H   UNL     1      35.172  27.232  31.101  0.00  0.00    +0.000 HD
ENDROOT
BRANCH   9  17
ATOM     17  C   UNL     1      37.602  27.269  31.783  0.00  0.00    +0.000 A 
ATOM     18  C   UNL     1      37.578  28.428  32.529  0.00  0.00    +0.000 A 
ATOM     19  N   UNL     1      38.438  29.348  32.077  0.00  0.00    +0.000 N 
ATOM     20  C   UNL     1      39.122  28.922  31.003  0.00  0.00    +0.000 A 
ATOM     21  C   UNL     1      40.072  29.454  30.205  0.00  0.00    +0.000 A 
ATOM     22  C   UNL     1      40.569  28.716  29.158  0.00  0.00    +0.000 A 
ATOM     23  C   UNL     1      40.112  27.454  28.919  0.00  0.00    +0.000 A 
ATOM     24  C   UNL     1      39.153  26.938  29.737  0.00  0.00    +0.000 A 
ATOM     25  C   UNL     1      38.599  27.631  30.824  0.00  0.00    +0.000 A 
ATOM     26  H   UNL     1      38.525  30.274  32.548  0.00  0.00    +0.000 HD
ENDBRANCH   9  17
BRANCH   1  27
ATOM     27  C   UNL     1      39.626  25.546  32.564  0.00  0.00    +0.000 A 
ATOM     28  C   UNL     1      39.873  25.962  33.889  0.00  0.00    +0.000 A 
ATOM     29  C   UNL     1      40.795  26.999  34.091  0.00  0.00    +0.000 A 
ATOM     30  N   UNL     1      41.413  27.556  33.005  0.00  0.00    +0.000 NA
ATOM     31  C   UNL     1      41.158  27.132  31.748  0.00  0.00    +0.000 A 
ATOM     32  N   UNL     1      40.291  26.160  31.561  0.00  0.00    +0.000 NA
ATOM     33  H   UNL     1      41.000  27.335  35.090  0.00  0.00    +0.000 HD
ATOM     34  H   UNL     1      41.648  27.573  30.908  0.00  0.00    +0.000 HD
BRANCH  28  35
ATOM     35  N   UNL     1      39.241  25.327  34.943  0.00  0.00    +0.000 N 
ATOM     36  C   UNL     1      38.005  25.567  35.392  0.00  0.00    +0.000 A 
ATOM     37  N   UNL     1      37.684  24.775  36.439  0.00  0.00    +0.000 NA
ATOM     38  C   UNL     1      38.771  23.991  36.666  0.00  0.00    +0.000 A 
ATOM     39  C   UNL     1      39.039  23.007  37.576  0.00  0.00    +0.000 A 
ATOM     40  N   UNL     1      40.214  22.340  37.617  0.00  0.00    +0.000 NA
ATOM     41  C   UNL     1      41.127  22.711  36.685  0.00  0.00    +0.000 A 
ATOM     42  N   UNL     1      40.849  23.667  35.813  0.00  0.00    +0.000 NA
ATOM     43  C   UNL     1      39.712  24.351  35.732  0.00  0.00    +0.000 A 
ATOM     44  H   UNL     1      37.200  26.236  35.121  0.00  0.00    +0.000 HD
ATOM     45  H   UNL     1      38.252  22.766  38.293  0.00  0.00    +0.000 HD
ATOM     46  H   UNL     1      42.125  22.311  36.539  0.00  0.00    +0.000 HD
ENDBRANCH  28  35
ENDBRANCH   1  27
TORSDOF 3
