
 OpenBabel03262519263D

 46 52  0  0  0  0  0  0  0  0999 V2000
   38.6500   23.1930   32.7290 C   0  0  0  0  0  0  0  0  0  0  0  0
   38.5350   21.9240   33.2840 C   0  0  0  0  0  0  0  0  0  0  0  0
   37.3410   21.1970   33.2380 C   0  0  0  0  0  0  0  0  0  0  0  0
   36.2240   21.7460   32.6240 C   0  0  0  0  0  0  0  0  0  0  0  0
   36.3150   23.0040   32.0670 C   0  0  0  0  0  0  0  0  0  0  0  0
   35.2140   23.5440   31.4630 C   0  0  0  0  0  0  0  0  0  0  0  0
   35.2420   24.7970   30.8870 C   0  0  0  0  0  0  0  0  0  0  0  0
   36.4470   25.4990   30.9400 C   0  0  0  0  0  0  0  0  0  0  0  0
   37.5360   24.9080   31.5630 C   0  0  0  0  0  0  0  0  0  0  0  0
   37.5150   23.6750   32.1390 C   0  0  0  0  0  0  0  0  0  0  0  0
   39.4290   21.5280   33.7560 H   0  0  0  0  0  0  0  0  0  0  0  0
   37.2920   20.2110   33.6800 H   0  0  0  0  0  0  0  0  0  0  0  0
   35.3290   21.1380   32.6210 H   0  0  0  0  0  0  0  0  0  0  0  0
   34.3120   22.9440   31.4570 H   0  0  0  0  0  0  0  0  0  0  0  0
   34.2930   25.1070   30.4400 H   0  0  0  0  0  0  0  0  0  0  0  0
   36.3070   26.4510   30.4500 H   0  0  0  0  0  0  0  0  0  0  0  0
   38.6000   25.8720   31.3300 C   0  0  0  0  0  0  0  0  0  0  0  0
   39.2030   26.9790   31.8890 C   0  0  0  0  0  0  0  0  0  0  0  0
   40.1690   27.4850   31.1140 N   0  0  0  0  0  0  0  0  0  0  0  0
   40.3220   26.7920   29.9740 C   0  0  0  0  0  0  0  0  0  0  0  0
   41.1320   26.8930   28.8990 C   0  0  0  0  0  0  0  0  0  0  0  0
   41.0160   25.9840   27.8760 C   0  0  0  0  0  0  0  0  0  0  0  0
   40.0930   24.9830   27.9360 C   0  0  0  0  0  0  0  0  0  0  0  0
   39.2860   24.9010   29.0310 C   0  0  0  0  0  0  0  0  0  0  0  0
   39.3460   25.7920   30.1130 C   0  0  0  0  0  0  0  0  0  0  0  0
   40.7090   28.3240   31.4140 H   0  0  0  0  0  0  0  0  0  0  0  0
   39.8860   23.9140   32.8100 C   0  0  0  0  0  0  0  0  0  0  0  0
   40.2010   24.7880   33.8720 C   0  0  0  0  0  0  0  0  0  0  0  0
   41.4460   25.4330   33.8440 C   0  0  0  0  0  0  0  0  0  0  0  0
   42.2960   25.1880   32.8010 N   0  0  0  0  0  0  0  0  0  0  0  0
   41.9670   24.3420   31.8010 C   0  0  0  0  0  0  0  0  0  0  0  0
   40.7970   23.7390   31.8280 N   0  0  0  0  0  0  0  0  0  0  0  0
   41.7090   26.1040   34.6400 H   0  0  0  0  0  0  0  0  0  0  0  0
   42.6390   24.1570   30.9920 H   0  0  0  0  0  0  0  0  0  0  0  0
   39.3090   24.9580   34.9150 N   0  0  0  0  0  0  0  0  0  0  0  0
   38.3130   25.8470   34.9740 C   0  0  0  0  0  0  0  0  0  0  0  0
   37.6230   25.7580   36.1330 N   0  0  0  0  0  0  0  0  0  0  0  0
   38.2100   24.7610   36.8460 C   0  0  0  0  0  0  0  0  0  0  0  0
   37.9560   24.2160   38.0730 C   0  0  0  0  0  0  0  0  0  0  0  0
   38.6820   23.2030   38.5960 N   0  0  0  0  0  0  0  0  0  0  0  0
   39.6950   22.7500   37.8150 C   0  0  0  0  0  0  0  0  0  0  0  0
   39.9260   23.2920   36.6300 N   0  0  0  0  0  0  0  0  0  0  0  0
   39.2430   24.2870   36.0740 C   0  0  0  0  0  0  0  0  0  0  0  0
   37.9230   26.6160   34.3220 H   0  0  0  0  0  0  0  0  0  0  0  0
   37.1230   24.6360   38.6400 H   0  0  0  0  0  0  0  0  0  0  0  0
   40.3960   21.9520   38.0360 H   0  0  0  0  0  0  0  0  0  0  0  0
  1 27  1  0  0  0  0
  1  2  1  0  0  0  0
  2 11  1  0  0  0  0
  3  2  2  0  0  0  0
  3 12  1  0  0  0  0
  4  3  1  0  0  0  0
  5 10  1  0  0  0  0
  5  4  2  0  0  0  0
  6  5  1  0  0  0  0
  7  8  1  0  0  0  0
  7  6  2  0  0  0  0
  8  9  2  0  0  0  0
  9 10  1  0  0  0  0
 10  1  2  0  0  0  0
 13  4  1  0  0  0  0
 14  6  1  0  0  0  0
 15  7  1  0  0  0  0
 16  8  1  0  0  0  0
 17  9  1  0  0  0  0
 17 18  2  0  0  0  0
 19 26  1  0  0  0  0
 19 18  1  0  0  0  0
 20 25  1  0  0  0  0
 20 19  1  0  0  0  0
 21 20  2  0  0  0  0
 22 23  2  0  0  0  0
 22 21  1  0  0  0  0
 23 24  1  0  0  0  0
 24 25  2  0  0  0  0
 25 17  1  0  0  0  0
 27 28  1  0  0  0  0
 28 35  1  0  0  0  0
 29 28  2  0  0  0  0
 29 33  1  0  0  0  0
 30 29  1  0  0  0  0
 31 32  1  0  0  0  0
 31 30  2  0  0  0  0
 32 27  2  0  0  0  0
 34 31  1  0  0  0  0
 35 36  1  0  0  0  0
 35 43  1  0  0  0  0
 36 37  2  0  0  0  0
 37 38  1  0  0  0  0
 38 39  1  0  0  0  0
 39 40  2  0  0  0  0
 39 45  1  0  0  0  0
 41 46  1  0  0  0  0
 41 40  1  0  0  0  0
 42 41  2  0  0  0  0
 43 42  1  0  0  0  0
 43 38  2  0  0  0  0
 44 36  1  0  0  0  0
M  END
>  <minimizedAffinity>
-6.16527939

>  <minimizedRMSD>
1.91243207

$$$$
