REMARK  Name = 
REMARK  3 active torsions:
REMARK  status: ('A' for Active; 'I' for Inactive)
REMARK    1  A    between atoms: C_1  and  C_6
REMARK    2  A    between atoms: N_5  and  C_12
REMARK    3  A    between atoms: C_14  and  C_24
REMARK                            x       y       z     vdW  Elec       q    Type
REMARK                         _______ _______ _______ _____ _____    ______ ____
ROOT
ATOM      1  C   UNL     1      37.003  21.165  34.388  0.00  0.00    +0.000 C 
ATOM      2  C   UNL     1      35.843  20.965  35.260  0.00  0.00    +0.000 C 
ATOM      3  C   UNL     1      35.669  20.774  33.762  0.00  0.00    +0.000 C 
ATOM      4  H   UNL     1      37.781  20.387  34.252  0.00  0.00    +0.000 HD
ATOM      5  H   UNL     1      35.393  21.835  35.743  0.00  0.00    +0.000 HD
ATOM      6  H   UNL     1      35.839  20.056  35.897  0.00  0.00    +0.000 HD
ATOM      7  H   UNL     1      35.073  21.525  33.215  0.00  0.00    +0.000 HD
ENDROOT
BRANCH   3   8
ATOM      8  C   UNL     1      35.441  19.373  33.343  0.00  0.00    +0.000 A 
ATOM      9  C   UNL     1      34.322  18.581  33.557  0.00  0.00    +0.000 A 
ATOM     10  N   UNL     1      34.508  17.349  33.013  0.00  0.00    +0.000 N 
ATOM     11  C   UNL     1      35.722  17.287  32.437  0.00  0.00    +0.000 A 
ATOM     12  C   UNL     1      36.413  16.299  31.754  0.00  0.00    +0.000 A 
ATOM     13  C   UNL     1      37.681  16.523  31.260  0.00  0.00    +0.000 A 
ATOM     14  C   UNL     1      38.264  17.751  31.453  0.00  0.00    +0.000 A 
ATOM     15  C   UNL     1      37.572  18.721  32.130  0.00  0.00    +0.000 A 
ATOM     16  C   UNL     1      36.288  18.535  32.645  0.00  0.00    +0.000 A 
ATOM     17  H   UNL     1      33.815  16.570  33.037  0.00  0.00    +0.000 HD
ENDBRANCH   3   8
BRANCH   1  22
ATOM     18  C   UNL     1      38.024  23.468  34.620  0.00  0.00    +0.000 A 
ATOM     19  C   UNL     1      38.258  24.569  33.801  0.00  0.00    +0.000 A 
ATOM     20  N   UNL     1      37.764  24.175  32.592  0.00  0.00    +0.000 NA
ATOM     21  C   UNL     1      37.292  22.955  32.719  0.00  0.00    +0.000 A 
ATOM     22  N   UNL     1      37.434  22.477  33.967  0.00  0.00    +0.000 N 
ATOM     23  H   UNL     1      38.730  25.489  34.129  0.00  0.00    +0.000 HD
ATOM     24  H   UNL     1      36.866  22.518  31.826  0.00  0.00    +0.000 HD
BRANCH  18  25
ATOM     25  C   UNL     1      38.383  23.402  36.033  0.00  0.00    +0.000 A 
ATOM     26  C   UNL     1      39.593  22.798  36.418  0.00  0.00    +0.000 A 
ATOM     27  C   UNL     1      39.903  22.756  37.796  0.00  0.00    +0.000 A 
ATOM     28  N   UNL     1      39.011  23.301  38.652  0.00  0.00    +0.000 NA
ATOM     29  C   UNL     1      37.852  23.877  38.251  0.00  0.00    +0.000 A 
ATOM     30  N   UNL     1      37.547  23.923  36.945  0.00  0.00    +0.000 NA
ATOM     31  H   UNL     1      40.263  22.381  35.694  0.00  0.00    +0.000 HD
ATOM     32  H   UNL     1      40.823  22.300  38.138  0.00  0.00    +0.000 HD
ATOM     33  H   UNL     1      37.194  24.287  38.977  0.00  0.00    +0.000 HD
ENDBRANCH  18  25
ENDBRANCH   1  22
TORSDOF 3
