
 OpenBabel03262518283D

 29 32  0  0  0  0  0  0  0  0999 V2000
   39.5230   22.7890   38.3180 N   0  0  0  0  0  0  0  0  0  0  0  0
   38.4720   23.6040   38.1520 N   0  0  0  0  0  0  0  0  0  0  0  0
   38.4740   24.0850   36.8870 C   0  0  0  0  0  0  0  0  0  0  0  0
   39.5700   23.5350   36.2760 C   0  0  0  0  0  0  0  0  0  0  0  0
   40.2040   22.7410   37.1680 C   0  0  0  0  0  0  0  0  0  0  0  0
   39.6250   22.3610   39.2450 H   0  0  0  0  0  0  0  0  0  0  0  0
   39.8130   23.7440   35.2720 H   0  0  0  0  0  0  0  0  0  0  0  0
   41.3980   21.9210   37.0830 C   0  0  0  0  0  0  0  0  0  0  0  0
   41.5900   20.7320   37.7950 C   0  0  0  0  0  0  0  0  0  0  0  0
   42.7900   20.1820   37.5210 N   0  0  0  0  0  0  0  0  0  0  0  0
   43.4300   20.9620   36.6370 C   0  0  0  0  0  0  0  0  0  0  0  0
   44.6620   20.8750   36.0280 C   0  0  0  0  0  0  0  0  0  0  0  0
   45.1070   21.8180   35.1380 C   0  0  0  0  0  0  0  0  0  0  0  0
   44.2480   22.8670   34.8850 C   0  0  0  0  0  0  0  0  0  0  0  0
   43.0210   22.9390   35.5020 C   0  0  0  0  0  0  0  0  0  0  0  0
   42.5690   22.0000   36.3920 C   0  0  0  0  0  0  0  0  0  0  0  0
   43.2050   19.3030   37.8990 H   0  0  0  0  0  0  0  0  0  0  0  0
   37.4920   24.9690   36.4180 O   0  0  0  0  0  0  0  0  0  0  0  0
   37.8690   26.2080   35.8910 C   0  0  0  0  0  0  0  0  0  0  0  0
   38.6750   26.9730   36.4780 O   0  0  0  0  0  0  0  0  0  0  0  0
   37.3080   26.6400   34.6120 C   0  0  0  0  0  0  0  0  0  0  0  0
   37.3590   25.7280   33.5430 C   0  0  0  0  0  0  0  0  0  0  0  0
   36.8270   26.1200   32.3020 C   0  0  0  0  0  0  0  0  0  0  0  0
   36.2990   27.3660   32.2370 N   0  0  0  0  0  0  0  0  0  0  0  0
   36.2630   28.2060   33.2610 C   0  0  0  0  0  0  0  0  0  0  0  0
   36.7650   27.8630   34.4690 N   0  0  0  0  0  0  0  0  0  0  0  0
   37.8030   24.7370   33.6700 H   0  0  0  0  0  0  0  0  0  0  0  0
   36.8740   25.4190   31.5000 H   0  0  0  0  0  0  0  0  0  0  0  0
   35.8090   29.1740   33.0660 H   0  0  0  0  0  0  0  0  0  0  0  0
  1  6  1  0  0  0  0
  2  1  1  0  0  0  0
  3  2  2  0  0  0  0
  4  3  1  0  0  0  0
  4  5  2  0  0  0  0
  5  1  1  0  0  0  0
  7  4  1  0  0  0  0
  8  5  1  0  0  0  0
  8  9  2  0  0  0  0
 10  9  1  0  0  0  0
 10 17  1  0  0  0  0
 11 10  1  0  0  0  0
 12 11  2  0  0  0  0
 13 12  1  0  0  0  0
 14 13  2  0  0  0  0
 14 15  1  0  0  0  0
 15 16  2  0  0  0  0
 16 11  1  0  0  0  0
 16  8  1  0  0  0  0
 18  3  1  0  0  0  0
 19 18  1  0  0  0  0
 19 20  2  0  0  0  0
 21 19  1  0  0  0  0
 22 27  1  0  0  0  0
 22 21  2  0  0  0  0
 23 22  1  0  0  0  0
 24 23  2  0  0  0  0
 24 25  1  0  0  0  0
 25 26  2  0  0  0  0
 26 21  1  0  0  0  0
 28 23  1  0  0  0  0
 29 25  1  0  0  0  0
M  END
>  <minimizedAffinity>
-5.26298857

>  <minimizedRMSD>
1.29177666

$$$$
