
 OpenBabel03262519573D

 33 37  0  0  1  0  0  0  0  0999 V2000
   37.2990   21.5620   33.9820 C   0  0  1  0  0  0  0  0  0  0  0  0
   35.9890   21.1430   34.4330 C   0  0  0  0  0  0  0  0  0  0  0  0
   36.3010   21.0470   32.9390 C   0  0  2  0  0  0  0  0  0  0  0  0
   38.1650   20.9290   34.2290 H   0  0  0  0  0  0  0  0  0  0  0  0
   35.9260   20.2160   35.0480 H   0  0  0  0  0  0  0  0  0  0  0  0
   35.1410   21.8210   34.6560 H   0  0  0  0  0  0  0  0  0  0  0  0
   35.8150   21.7750   32.2670 H   0  0  0  0  0  0  0  0  0  0  0  0
   36.4230   19.6350   32.5020 C   0  0  0  0  0  0  0  0  0  0  0  0
   35.3230   18.8950   32.9530 C   0  0  0  0  0  3  0  0  0  0  0  0
   35.2040   17.5420   32.6180 C   0  0  0  0  0  3  0  0  0  0  0  0
   36.2010   16.9610   31.8310 C   0  0  0  0  0  3  0  0  0  0  0  0
   37.2780   17.6970   31.3940 C   0  0  0  0  0  0  0  0  0  0  0  0
   38.3130   17.1960   30.6230 C   0  0  0  0  0  3  0  0  0  0  0  0
   39.3780   18.0000   30.2290 C   0  0  0  0  0  3  0  0  0  0  0  0
   39.4420   19.3480   30.5990 C   0  0  0  0  0  3  0  0  0  0  0  0
   38.4120   19.8510   31.3670 C   0  0  0  0  0  3  0  0  0  0  0  0
   37.3850   19.0300   31.7310 C   0  0  0  0  0  0  0  0  0  0  0  0
   38.1610   23.8620   34.5670 C   0  0  0  0  0  0  0  0  0  0  0  0
   38.3470   25.0720   33.9090 C   0  0  0  0  0  0  0  0  0  0  0  0
   37.9220   24.8290   32.6390 N   0  0  0  0  0  0  0  0  0  0  0  0
   37.5230   23.5770   32.5740 C   0  0  0  0  0  0  0  0  0  0  0  0
   37.6580   22.9460   33.7580 N   0  0  0  0  0  0  0  0  0  0  0  0
   38.7470   25.9910   34.3500 H   0  0  0  0  0  0  0  0  0  0  0  0
   37.1480   23.2210   31.6070 H   0  0  0  0  0  0  0  0  0  0  0  0
   38.4720   23.6160   35.9690 C   0  0  0  0  0  0  0  0  0  0  0  0
   39.6650   23.0060   36.3320 C   0  0  0  0  0  0  0  0  0  0  0  0
   39.9200   22.7900   37.7030 C   0  0  0  0  0  0  0  0  0  0  0  0
   38.9720   23.1960   38.5840 N   0  0  0  0  0  0  0  0  0  0  0  0
   37.8160   23.7880   38.2070 C   0  0  0  0  0  0  0  0  0  0  0  0
   37.5600   24.0000   36.9060 N   0  0  0  0  0  0  0  0  0  0  0  0
   40.3910   22.6990   35.5950 H   0  0  0  0  0  0  0  0  0  0  0  0
   40.8410   22.3150   38.0340 H   0  0  0  0  0  0  0  0  0  0  0  0
   37.1040   24.0870   38.9610 H   0  0  0  0  0  0  0  0  0  0  0  0
  1  4  1  1  0  0  0
  1  2  1  0  0  0  0
  2  6  1  0  0  0  0
  2  5  1  0  0  0  0
  3  7  1  6  0  0  0
  3  1  1  0  0  0  0
  3  2  1  0  0  0  0
  8  3  1  0  0  0  0
  8  9  1  0  0  0  0
 10  9  2  0  0  0  0
 11 10  1  0  0  0  0
 12 17  1  0  0  0  0
 12 11  2  0  0  0  0
 13 12  1  0  0  0  0
 14 15  1  0  0  0  0
 14 13  2  0  0  0  0
 15 16  2  0  0  0  0
 16 17  1  0  0  0  0
 17  8  2  0  0  0  0
 18 25  1  0  0  0  0
 19 23  1  0  0  0  0
 19 18  2  0  0  0  0
 20 19  1  0  0  0  0
 21 20  2  0  0  0  0
 21 22  1  0  0  0  0
 22  1  1  0  0  0  0
 22 18  1  0  0  0  0
 24 21  1  0  0  0  0
 25 26  2  0  0  0  0
 25 30  1  0  0  0  0
 26 27  1  0  0  0  0
 27 32  1  0  0  0  0
 27 28  2  0  0  0  0
 29 28  1  0  0  0  0
 29 33  1  0  0  0  0
 30 29  2  0  0  0  0
 31 26  1  0  0  0  0
M  END
>  <minimizedAffinity>
-5.37806797

>  <minimizedRMSD>
1.19890261

$$$$
