
 OpenBabel03262519153D

 36 40  0  0  0  0  0  0  0  0999 V2000
   39.7830   23.6210   35.9720 C   0  0  0  0  0  0  0  0  0  0  0  0
   39.6250   24.4450   34.8310 C   0  0  0  0  0  0  0  0  0  0  0  0
   40.3070   24.1470   33.6660 C   0  0  0  0  0  0  0  0  0  0  0  0
   41.1080   23.0490   33.6960 N   0  0  0  0  0  0  0  0  0  0  0  0
   41.2430   22.2580   34.8330 C   0  0  0  0  0  0  0  0  0  0  0  0
   40.5780   22.5700   35.9300 N   0  0  0  0  0  0  0  0  0  0  0  0
   39.2210   23.9140   36.8470 H   0  0  0  0  0  0  0  0  0  0  0  0
   40.2390   24.7170   32.7730 H   0  0  0  0  0  0  0  0  0  0  0  0
   38.7770   25.6180   34.7890 C   0  0  0  0  0  0  0  0  0  0  0  0
   38.7650   26.6230   35.7450 C   0  0  0  0  0  0  0  0  0  0  0  0
   37.9000   27.6520   35.5450 C   0  0  0  0  0  0  0  0  0  0  0  0
   37.0940   27.6330   34.4120 C   0  0  0  0  0  0  0  0  0  0  0  0
   37.5780   26.0600   33.5590 S   0  0  0  0  0  0  0  0  0  0  0  0
   39.4030   26.6120   36.6180 H   0  0  0  0  0  0  0  0  0  0  0  0
   37.7420   28.5210   36.1670 H   0  0  0  0  0  0  0  0  0  0  0  0
   36.1080   28.4820   33.8690 C   0  0  0  0  0  0  0  0  0  0  0  0
   35.6140   28.2510   32.7580 O   0  0  0  0  0  0  0  0  0  0  0  0
   35.6470   29.6420   34.5900 N   0  0  0  0  0  0  0  0  0  0  0  0
   35.1890   30.4550   34.1010 H   0  0  0  0  0  0  0  0  0  0  0  0
   35.7290   29.7650   35.6240 H   0  0  0  0  0  0  0  0  0  0  0  0
   42.1550   21.1050   34.6890 C   0  0  0  0  0  0  0  0  0  0  0  0
   42.1270   20.4480   33.4890 C   0  0  0  0  0  0  0  0  0  0  0  0
   43.4170   19.0980   33.7710 S   0  0  0  0  0  0  0  0  0  0  0  0
   43.7240   19.7430   35.5180 C   0  0  0  0  0  0  0  0  0  0  0  0
   43.0050   20.5970   35.5380 N   0  0  0  0  0  0  0  0  0  0  0  0
   41.6250   20.4770   32.5180 H   0  0  0  0  0  0  0  0  0  0  0  0
   44.7330   18.9800   36.2450 C   0  0  0  0  0  0  0  0  0  0  0  0
   46.0880   19.2180   36.1810 C   0  0  0  0  0  0  0  0  0  0  0  0
   47.0290   18.4710   36.8880 C   0  0  0  0  0  0  0  0  0  0  0  0
   46.5930   17.4460   37.6900 C   0  0  0  0  0  0  0  0  0  0  0  0
   45.2530   17.1630   37.7940 C   0  0  0  0  0  0  0  0  0  0  0  0
   44.8490   16.1270   38.6090 C   0  0  0  0  0  0  0  0  0  0  0  0
   43.4890   15.8460   38.7070 C   0  0  0  0  0  0  0  0  0  0  0  0
   42.6020   16.6380   37.9700 C   0  0  0  0  0  0  0  0  0  0  0  0
   43.0440   17.6560   37.1730 C   0  0  0  0  0  0  0  0  0  0  0  0
   44.3780   17.9410   37.0680 C   0  0  0  0  0  0  0  0  0  0  0  0
  1  7  1  0  0  0  0
  2  1  2  0  0  0  0
  3  4  2  0  0  0  0
  3  2  1  0  0  0  0
  4  5  1  0  0  0  0
  5  6  2  0  0  0  0
  6  1  1  0  0  0  0
  8  3  1  0  0  0  0
  9  2  1  0  0  0  0
  9 10  2  0  0  0  0
 10 14  1  0  0  0  0
 11 10  1  0  0  0  0
 11 15  1  0  0  0  0
 12 11  2  0  0  0  0
 13 12  1  0  0  0  0
 13  9  1  0  0  0  0
 16 12  1  0  0  0  0
 16 18  1  0  0  0  0
 17 16  2  0  0  0  0
 18 20  1  0  0  0  0
 19 18  1  0  0  0  0
 21  5  1  0  0  0  0
 21 25  1  0  0  0  0
 22 23  1  0  0  0  0
 22 21  2  0  0  0  0
 23 24  1  0  0  0  0
 24 25  2  0  0  0  0
 24 27  1  0  0  0  0
 26 22  1  0  0  0  0
 27 36  1  0  0  0  0
 28 27  2  0  0  0  0
 28 29  1  0  0  0  0
 29 30  2  0  0  0  0
 30 31  1  0  0  0  0
 31 32  1  0  0  0  0
 32 33  2  0  0  0  0
 34 33  1  0  0  0  0
 35 34  2  0  0  0  0
 36 35  1  0  0  0  0
 36 31  2  0  0  0  0
M  END
>  <minimizedAffinity>
-4.747293

>  <minimizedRMSD>
2.58965135

$$$$
