
     RDKit          3D

 49 53  0  0  0  0  0  0  0  0999 V2000
   38.0765   25.7647   35.4253 C   0  0  1  0  0  0  0  0  0  0  0  0
   38.6454   23.3797   38.3075 C   0  0  0  0  0  0  0  0  0  0  0  0
   38.0494   24.4136   37.5704 C   0  0  0  0  0  0  0  0  0  0  0  0
   38.6440   24.7053   36.2892 C   0  0  0  0  0  0  0  0  0  0  0  0
   39.7404   23.9750   35.8592 N   0  0  0  0  0  0  0  0  0  0  0  0
   40.2575   23.0034   36.6119 C   0  0  0  0  0  0  0  0  0  0  0  0
   39.7016   22.7055   37.8485 N   0  0  0  0  0  0  0  0  0  0  0  0
   38.3559   27.1342   36.0289 C   0  0  0  0  0  0  0  0  0  0  0  0
   38.5842   25.7122   34.0317 C   0  0  0  0  0  0  0  0  0  0  0  0
   37.5842   25.4389   33.0778 N   0  0  0  0  0  0  0  0  0  0  0  0
   37.0543   24.3355   32.5480 C   0  0  0  0  0  0  0  0  0  0  0  0
   36.0580   24.5684   31.6296 C   0  0  0  0  0  0  0  0  0  0  0  0
   35.9604   25.8898   31.5831 N   0  0  0  0  0  0  0  0  0  0  0  0
   36.8769   26.4231   32.4527 C   0  0  0  0  0  0  0  0  0  0  0  0
   36.9940   27.9348   32.5788 C   0  0  1  0  0  0  0  0  0  0  0  0
   35.8482   28.7130   32.0606 C   0  0  0  0  0  0  0  0  0  0  0  0
   36.0432   28.5841   33.5640 C   0  0  2  0  0  0  0  0  0  0  0  0
   36.9664   25.6795   35.4461 H   0  0  0  0  0  0  0  0  0  0  0  0
   38.1770   23.1879   39.2591 H   0  0  0  0  0  0  0  0  0  0  0  0
   37.1961   25.0073   37.8662 H   0  0  0  0  0  0  0  0  0  0  0  0
   41.1133   22.4554   36.2425 H   0  0  0  0  0  0  0  0  0  0  0  0
   39.2161   27.5879   35.5021 H   0  0  0  0  0  0  0  0  0  0  0  0
   37.4681   27.7580   36.1227 H   0  0  0  0  0  0  0  0  0  0  0  0
   38.7265   26.9772   37.0780 H   0  0  0  0  0  0  0  0  0  0  0  0
   39.3628   24.9083   33.9886 H   0  0  0  0  0  0  0  0  0  0  0  0
   39.1355   26.6493   33.7617 H   0  0  0  0  0  0  0  0  0  0  0  0
   37.4066   23.3327   32.8416 H   0  0  0  0  0  0  0  0  0  0  0  0
   35.5189   23.7746   31.1019 H   0  0  0  0  0  0  0  0  0  0  0  0
   38.0059   28.3749   32.4967 H   0  0  0  0  0  0  0  0  0  0  0  0
   34.9832   28.1103   31.6740 H   0  0  0  0  0  0  0  0  0  0  0  0
   35.9601   29.6810   31.5744 H   0  0  0  0  0  0  0  0  0  0  0  0
   35.4166   27.8923   34.1492 H   0  0  0  0  0  0  0  0  0  0  0  0
   36.2985   29.9263   34.1424 C   0  0  0  0  0  0  0  0  0  0  0  0
   37.4729   30.4707   34.5332 C   0  0  0  0  0  0  0  0  0  0  0  0
   37.6880   31.7340   35.0324 C   0  0  0  0  0  0  0  0  0  0  0  0
   36.5960   32.5645   35.1597 C   0  0  0  0  0  0  0  0  0  0  0  0
   35.3569   32.0932   34.7852 C   0  0  0  0  0  0  0  0  0  0  0  0
   34.3227   32.9873   34.9517 C   0  0  0  0  0  0  0  0  0  0  0  0
   33.0515   32.5835   34.6046 C   0  0  0  0  0  0  0  0  0  0  0  0
   32.8406   31.3155   34.1061 C   0  0  0  0  0  0  0  0  0  0  0  0
   33.9282   30.4827   33.9703 C   0  0  0  0  0  0  0  0  0  0  0  0
   35.2245   30.8124   34.2935 C   0  0  0  0  0  0  0  0  0  0  0  0
   38.3641   29.8730   34.4418 H   0  0  0  0  0  0  0  0  0  0  0  0
   38.6707   32.0775   35.3186 H   0  0  0  0  0  0  0  0  0  0  0  0
   36.7450   33.5613   35.5500 H   0  0  0  0  0  0  0  0  0  0  0  0
   34.4693   33.9796   35.3390 H   0  0  0  0  0  0  0  0  0  0  0  0
   32.2284   33.2736   34.7290 H   0  0  0  0  0  0  0  0  0  0  0  0
   31.8371   31.0168   33.8396 H   0  0  0  0  0  0  0  0  0  0  0  0
   33.6885   29.5104   33.5844 H   0  0  0  0  0  0  0  0  0  0  0  0
  1  8  1  0
  1  4  1  0
  3  2  2  0
  4  3  1  0
  5  4  2  0
  5  6  1  0
  6  7  2  0
  7  2  1  0
  9  1  1  0
 10  9  1  0
 11 10  1  0
 12 11  2  0
 13 12  1  0
 13 14  2  0
 14 15  1  0
 14 10  1  0
 15 17  1  0
 16 15  1  0
 16 17  1  0
  1 18  1  6
  2 19  1  0
  3 20  1  0
  6 21  1  0
  8 22  1  0
  8 23  1  0
  8 24  1  0
  9 25  1  0
  9 26  1  0
 11 27  1  0
 12 28  1  0
 15 29  1  6
 16 30  1  0
 16 31  1  0
 17 32  1  1
 33 34  2  0
 34 35  1  0
 35 36  2  0
 36 37  1  0
 37 38  2  0
 38 39  1  0
 39 40  2  0
 40 41  1  0
 41 42  2  0
 42 33  1  0
 42 37  1  0
 34 43  1  0
 35 44  1  0
 36 45  1  0
 38 46  1  0
 39 47  1  0
 40 48  1  0
 41 49  1  0
 17 33  1  0
M  ISO  8  18   8  19  14  20  14  21  14  22   8  23   8  24   8  25   8
M  ISO  7  26   8  27  14  28  14  29  13  30  13  31  13  32  13
M  END
>  <DihAtoms>  (1) 
14,16,32,33

>  <DihDeg>  (1) 
-53.17022307469878

$$$$
