
 OpenBabel03262519533D

 35 38  0  0  1  0  0  0  0  0999 V2000
   41.6420   27.3230   33.5380 C   0  0  0  0  0  0  0  0  0  0  0  0
   41.4440   28.2230   32.9210 H   0  0  0  0  0  0  0  0  0  0  0  0
   41.8820   27.7490   34.5580 H   0  0  0  0  0  0  0  0  0  0  0  0
   40.3760   26.4780   33.7530 C   0  0  2  0  0  0  0  0  0  0  0  0
   39.2120   27.2320   34.2800 C   0  0  0  0  0  0  0  0  0  0  0  0
   39.8790   26.0970   35.0260 C   0  0  1  0  0  0  0  0  0  0  0  0
   40.1630   25.8950   32.8410 H   0  0  0  0  0  0  0  0  0  0  0  0
   39.3420   28.2730   34.4680 H   0  0  0  0  0  0  0  0  0  0  0  0
   38.2050   27.0290   33.8030 H   0  0  0  0  0  0  0  0  0  0  0  0
   39.8610   26.3010   36.0340 H   0  0  0  0  0  0  0  0  0  0  0  0
   39.1540   24.7530   34.9440 C   0  0  0  0  0  0  0  0  0  0  0  0
   39.0740   24.0200   33.8070 C   0  0  0  0  0  0  0  0  0  0  0  0
   38.4190   22.8150   33.7330 C   0  0  0  0  0  0  0  0  0  0  0  0
   37.8070   22.3120   34.8610 C   0  0  0  0  0  0  0  0  0  0  0  0
   37.8650   23.0180   36.0230 C   0  0  0  0  0  0  0  0  0  0  0  0
   37.2480   22.5050   37.1470 C   0  0  0  0  0  0  0  0  0  0  0  0
   37.2720   23.1670   38.3410 C   0  0  0  0  0  0  0  0  0  0  0  0
   37.9300   24.3690   38.3970 C   0  0  0  0  0  0  0  0  0  0  0  0
   38.5450   24.8730   37.2620 C   0  0  0  0  0  0  0  0  0  0  0  0
   38.5310   24.2200   36.0520 C   0  0  0  0  0  0  0  0  0  0  0  0
   42.7160   26.4350   33.1480 C   0  0  0  0  0  0  0  0  0  0  0  0
   42.3410   25.5600   32.6980 H   0  0  0  0  0  0  0  0  0  0  0  0
   43.1410   26.9640   32.2100 H   0  0  0  0  0  0  0  0  0  0  0  0
   45.1940   25.5510   35.5800 C   0  0  0  0  0  0  0  0  0  0  0  0
   44.0110   25.4070   34.7960 C   0  0  0  0  0  0  0  0  0  0  0  0
   43.8370   26.4700   34.0070 C   0  0  0  0  0  0  0  0  0  0  0  0
   44.7200   27.5480   33.9900 N   0  0  0  0  0  0  0  0  0  0  0  0
   45.7960   27.6110   34.7460 C   0  0  0  0  0  0  0  0  0  0  0  0
   46.0260   26.5970   35.5460 N   0  0  0  0  0  0  0  0  0  0  0  0
   45.5170   24.7750   36.3010 H   0  0  0  0  0  0  0  0  0  0  0  0
   46.3920   28.4990   34.6350 H   0  0  0  0  0  0  0  0  0  0  0  0
   43.2920   24.1990   35.0070 C   0  0  0  0  0  0  0  0  0  0  0  0
   42.2700   24.3500   35.9770 F   0  0  0  0  0  0  0  0  0  0  0  0
   43.8110   23.1710   35.7020 F   0  0  0  0  0  0  0  0  0  0  0  0
   42.3590   23.8060   34.0520 F   0  0  0  0  0  0  0  0  0  0  0  0
  1  4  1  0  0  0  0
  1  3  1  0  0  0  0
  2  1  1  0  0  0  0
  4  7  1  6  0  0  0
  4  5  1  0  0  0  0
  4  6  1  0  0  0  0
  5  8  1  0  0  0  0
  5  6  1  0  0  0  0
  6 10  1  1  0  0  0
  9  5  1  0  0  0  0
 11  6  1  0  0  0  0
 11 20  1  0  0  0  0
 12 11  2  0  0  0  0
 13 12  1  0  0  0  0
 13 14  2  0  0  0  0
 14 15  1  0  0  0  0
 15 20  2  0  0  0  0
 15 16  1  0  0  0  0
 16 17  2  0  0  0  0
 17 18  1  0  0  0  0
 19 18  2  0  0  0  0
 20 19  1  0  0  0  0
 21  1  1  0  0  0  0
 21 26  1  0  0  0  0
 22 21  1  0  0  0  0
 23 21  1  0  0  0  0
 24 30  1  0  0  0  0
 25 32  1  0  0  0  0
 25 24  2  0  0  0  0
 26 25  1  0  0  0  0
 27 26  2  0  0  0  0
 27 28  1  0  0  0  0
 28 29  2  0  0  0  0
 29 24  1  0  0  0  0
 31 28  1  0  0  0  0
 32 34  1  0  0  0  0
 32 33  1  0  0  0  0
 35 32  1  0  0  0  0
M  END
>  <minimizedAffinity>
-4.50269842

>  <minimizedRMSD>
4.17949724

$$$$
