
 OpenBabel03262519483D

 42 46  0  0  1  0  0  0  0  0999 V2000
   37.3380   26.2590   32.7790 N   0  0  0  0  0  0  0  0  0  0  0  0
   36.9430   25.2720   31.9720 C   0  0  0  0  0  0  0  0  0  0  0  0
   35.8590   25.5820   31.1860 C   0  0  0  0  0  0  0  0  0  0  0  0
   35.5600   26.8310   31.5190 N   0  0  0  0  0  0  0  0  0  0  0  0
   36.4480   27.2460   32.4790 C   0  0  0  0  0  0  0  0  0  0  0  0
   37.4630   24.3000   31.9590 H   0  0  0  0  0  0  0  0  0  0  0  0
   35.4090   24.8880   30.4690 H   0  0  0  0  0  0  0  0  0  0  0  0
   36.3450   28.6630   33.0260 C   0  0  1  0  0  0  0  0  0  0  0  0
   35.2560   29.4900   32.4650 C   0  0  0  0  0  0  0  0  0  0  0  0
   35.1250   28.9460   33.8790 C   0  0  2  0  0  0  0  0  0  0  0  0
   37.2870   29.1640   33.3180 H   0  0  0  0  0  0  0  0  0  0  0  0
   34.5810   28.9760   31.7290 H   0  0  0  0  0  0  0  0  0  0  0  0
   35.3520   30.5620   32.2960 H   0  0  0  0  0  0  0  0  0  0  0  0
   34.4760   28.0810   34.0850 H   0  0  0  0  0  0  0  0  0  0  0  0
   35.0770   30.0780   34.8370 C   0  0  0  0  0  0  0  0  0  0  0  0
   36.0650   30.9320   35.1920 C   0  0  0  0  0  3  0  0  0  0  0  0
   35.9830   31.9980   36.0550 C   0  0  0  0  0  3  0  0  0  0  0  0
   34.7630   32.2520   36.6440 C   0  0  0  0  0  3  0  0  0  0  0  0
   33.6980   31.4320   36.3410 C   0  0  0  0  0  0  0  0  0  0  0  0
   32.5210   31.7550   36.9780 C   0  0  0  0  0  3  0  0  0  0  0  0
   31.4110   30.9750   36.7290 C   0  0  0  0  0  3  0  0  0  0  0  0
   31.4990   29.9060   35.8630 C   0  0  0  0  0  3  0  0  0  0  0  0
   32.7120   29.6510   35.2670 C   0  0  0  0  0  3  0  0  0  0  0  0
   33.8620   30.3810   35.4640 C   0  0  0  0  0  0  0  0  0  0  0  0
   38.3530   26.4190   33.7430 C   0  0  0  0  0  0  0  0  0  0  0  0
   39.1430   25.6410   33.5790 H   0  0  0  0  0  0  0  0  0  0  0  0
   38.8860   27.3930   33.5920 H   0  0  0  0  0  0  0  0  0  0  0  0
   37.8730   26.2760   35.1400 C   0  0  1  0  0  0  0  0  0  0  0  0
   36.7610   26.1990   35.1710 H   0  0  0  0  0  0  0  0  0  0  0  0
   38.4830   23.5150   37.6540 C   0  0  0  0  0  0  0  0  0  0  0  0
   37.8880   24.6510   37.0850 C   0  0  0  0  0  0  0  0  0  0  0  0
   38.4430   25.0980   35.8310 C   0  0  0  0  0  0  0  0  0  0  0  0
   39.5020   24.4090   35.2640 N   0  0  0  0  0  0  0  0  0  0  0  0
   40.0220   23.3340   35.8600 C   0  0  0  0  0  0  0  0  0  0  0  0
   39.5040   22.8860   37.0680 N   0  0  0  0  0  0  0  0  0  0  0  0
   38.0460   23.2080   38.5900 H   0  0  0  0  0  0  0  0  0  0  0  0
   37.0630   25.2170   37.4920 H   0  0  0  0  0  0  0  0  0  0  0  0
   40.8480   22.8220   35.3860 H   0  0  0  0  0  0  0  0  0  0  0  0
   38.1790   27.5420   35.9270 C   0  0  0  0  0  0  0  0  0  0  0  0
   39.0350   28.0590   35.4530 H   0  0  0  0  0  0  0  0  0  0  0  0
   37.3010   28.1540   36.1280 H   0  0  0  0  0  0  0  0  0  0  0  0
   38.5680   27.2330   36.9350 H   0  0  0  0  0  0  0  0  0  0  0  0
  1 25  1  0  0  0  0
  2  1  1  0  0  0  0
  3  4  1  0  0  0  0
  3  2  2  0  0  0  0
  4  5  2  0  0  0  0
  5  1  1  0  0  0  0
  5  8  1  0  0  0  0
  6  2  1  0  0  0  0
  7  3  1  0  0  0  0
  8 11  1  1  0  0  0
  8 10  1  0  0  0  0
  9  8  1  0  0  0  0
  9 10  1  0  0  0  0
 10 14  1  1  0  0  0
 10 15  1  0  0  0  0
 12  9  1  0  0  0  0
 13  9  1  0  0  0  0
 15 16  2  0  0  0  0
 15 24  1  0  0  0  0
 16 17  1  0  0  0  0
 17 18  2  0  0  0  0
 19 18  1  0  0  0  0
 19 20  1  0  0  0  0
 21 20  2  0  0  0  0
 22 21  1  0  0  0  0
 23 24  1  0  0  0  0
 23 22  2  0  0  0  0
 24 19  2  0  0  0  0
 25 28  1  0  0  0  0
 26 25  1  0  0  0  0
 27 25  1  0  0  0  0
 28 29  1  6  0  0  0
 28 32  1  0  0  0  0
 28 39  1  0  0  0  0
 30 36  1  0  0  0  0
 31 37  1  0  0  0  0
 31 30  1  0  0  0  0
 32 31  2  0  0  0  0
 33 32  1  0  0  0  0
 33 34  2  0  0  0  0
 34 35  1  0  0  0  0
 35 30  2  0  0  0  0
 38 34  1  0  0  0  0
 39 41  1  0  0  0  0
 39 42  1  0  0  0  0
 40 39  1  0  0  0  0
M  END
>  <minimizedAffinity>
-6.70599318

>  <minimizedRMSD>
1.56004679

$$$$
