
 OpenBabel03262515223D

 29 32  0  0  0  0  0  0  0  0999 V2000
   37.0380   22.7970   32.6990 C   0  0  0  0  0  0  0  0  0  0  0  0
   35.8900   22.4410   32.1300 C   0  0  0  0  0  0  0  0  0  0  0  0
   35.6290   21.1770   31.7240 C   0  0  0  0  0  0  0  0  0  0  0  0
   36.6210   20.2420   31.9230 C   0  0  0  0  0  0  0  0  0  0  0  0
   37.9660   21.2320   32.7230 S   0  0  0  0  0  0  0  0  0  0  0  0
   35.2090   23.3070   32.0460 H   0  0  0  0  0  0  0  0  0  0  0  0
   34.6640   20.9920   31.2740 H   0  0  0  0  0  0  0  0  0  0  0  0
   36.4820   18.8460   31.5300 C   0  0  0  0  0  0  0  0  0  0  0  0
   36.1240   17.9140   32.4600 C   0  0  0  0  0  0  0  0  0  0  0  0
   35.9870   16.5980   32.1140 C   0  0  0  0  0  0  0  0  0  0  0  0
   36.1910   16.1160   30.8410 C   0  0  0  0  0  0  0  0  0  0  0  0
   36.5530   17.0640   29.9110 C   0  0  0  0  0  0  0  0  0  0  0  0
   36.7650   16.6180   28.6260 C   0  0  0  0  0  0  0  0  0  0  0  0
   37.1310   17.4760   27.6120 C   0  0  0  0  0  0  0  0  0  0  0  0
   37.2780   18.8270   27.9380 C   0  0  0  0  0  0  0  0  0  0  0  0
   37.0500   19.2020   29.2380 C   0  0  0  0  0  0  0  0  0  0  0  0
   36.6860   18.3870   30.2770 C   0  0  0  0  0  0  0  0  0  0  0  0
   37.5900   23.9310   33.1980 O   0  0  0  0  0  0  0  0  0  0  0  0
   38.7550   23.9240   34.0000 C   0  0  0  0  0  0  0  0  0  0  0  0
   39.7990   24.0760   33.3220 O   0  0  0  0  0  0  0  0  0  0  0  0
   39.7940   22.7620   37.2510 C   0  0  0  0  0  0  0  0  0  0  0  0
   38.8520   23.3090   38.1450 C   0  0  0  0  0  0  0  0  0  0  0  0
   37.8110   24.1200   37.5830 C   0  0  0  0  0  0  0  0  0  0  0  0
   37.7970   24.3060   36.2500 N   0  0  0  0  0  0  0  0  0  0  0  0
   38.7250   23.7570   35.4360 C   0  0  0  0  0  0  0  0  0  0  0  0
   39.7240   22.9840   35.9370 N   0  0  0  0  0  0  0  0  0  0  0  0
   40.5350   22.1700   37.7670 H   0  0  0  0  0  0  0  0  0  0  0  0
   38.8320   23.1830   39.2050 H   0  0  0  0  0  0  0  0  0  0  0  0
   37.0730   24.5540   38.2430 H   0  0  0  0  0  0  0  0  0  0  0  0
  1  5  1  0  0  0  0
  1 18  1  0  0  0  0
  2  1  2  0  0  0  0
  3  4  2  0  0  0  0
  3  2  1  0  0  0  0
  4  5  1  0  0  0  0
  6  2  1  0  0  0  0
  7  3  1  0  0  0  0
  8  4  1  0  0  0  0
  8  9  1  0  0  0  0
 10  9  2  0  0  0  0
 11 10  1  0  0  0  0
 12 17  1  0  0  0  0
 12 11  2  0  0  0  0
 13 12  1  0  0  0  0
 14 15  1  0  0  0  0
 14 13  2  0  0  0  0
 15 16  2  0  0  0  0
 16 17  1  0  0  0  0
 17  8  2  0  0  0  0
 18 19  1  0  0  0  0
 19 25  1  0  0  0  0
 20 19  2  0  0  0  0
 21 27  1  0  0  0  0
 21 22  1  0  0  0  0
 22 28  1  0  0  0  0
 23 22  2  0  0  0  0
 23 29  1  0  0  0  0
 24 23  1  0  0  0  0
 25 26  1  0  0  0  0
 25 24  2  0  0  0  0
 26 21  2  0  0  0  0
M  END
>  <minimizedAffinity>
-5.0498786

>  <minimizedRMSD>
2.96619654

$$$$
