
 OpenBabel03262514473D

 25 28  0  0  0  0  0  0  0  0999 V2000
   40.1050   22.2900   34.6590 C   0  0  0  0  0  0  0  0  0  0  0  0
   39.7120   21.7950   33.4090 C   0  0  0  0  0  0  0  0  0  0  0  0
   40.6160   21.0330   32.6730 C   0  0  0  0  0  0  0  0  0  0  0  0
   41.8430   20.8160   33.2260 N   0  0  0  0  0  0  0  0  0  0  0  0
   42.2040   21.2950   34.4230 C   0  0  0  0  0  0  0  0  0  0  0  0
   41.3270   22.0230   35.1150 N   0  0  0  0  0  0  0  0  0  0  0  0
   40.2810   20.6770   31.7310 H   0  0  0  0  0  0  0  0  0  0  0  0
   43.1850   21.1130   34.8500 H   0  0  0  0  0  0  0  0  0  0  0  0
   39.2060   23.1100   35.5060 C   0  0  0  0  0  0  0  0  0  0  0  0
   38.3530   22.4220   36.3440 C   0  0  0  0  0  0  0  0  0  0  0  0
   37.4530   23.0790   37.1840 C   0  0  0  0  0  0  0  0  0  0  0  0
   37.4680   24.4600   37.1250 C   0  0  0  0  0  0  0  0  0  0  0  0
   38.3070   25.1760   36.2980 C   0  0  0  0  0  0  0  0  0  0  0  0
   38.3300   26.5530   36.2340 C   0  0  0  0  0  0  0  0  0  0  0  0
   39.1880   27.2460   35.3930 C   0  0  0  0  0  0  0  0  0  0  0  0
   40.0640   26.5380   34.5770 C   0  0  0  0  0  0  0  0  0  0  0  0
   40.0410   25.1560   34.6430 C   0  0  0  0  0  0  0  0  0  0  0  0
   39.1830   24.4890   35.4840 C   0  0  0  0  0  0  0  0  0  0  0  0
   38.3930   22.1080   32.9760 N   0  0  0  0  0  0  0  0  0  0  0  0
   37.8610   23.1840   32.3430 C   0  0  0  0  0  0  0  0  0  0  0  0
   36.5300   22.9660   32.1620 N   0  0  0  0  0  0  0  0  0  0  0  0
   36.2450   21.7520   32.6870 C   0  0  0  0  0  0  0  0  0  0  0  0
   37.4090   21.2310   33.1880 N   0  0  0  0  0  0  0  0  0  0  0  0
   38.5320   23.9950   32.0940 H   0  0  0  0  0  0  0  0  0  0  0  0
   35.2710   21.2620   32.7160 H   0  0  0  0  0  0  0  0  0  0  0  0
  1  6  1  0  0  0  0
  1  9  1  0  0  0  0
  2  1  2  0  0  0  0
  3  4  2  0  0  0  0
  3  2  1  0  0  0  0
  4  5  1  0  0  0  0
  5  8  1  0  0  0  0
  5  6  2  0  0  0  0
  7  3  1  0  0  0  0
  9 10  1  0  0  0  0
 10 11  2  0  0  0  0
 12 11  1  0  0  0  0
 13 12  2  0  0  0  0
 14 13  1  0  0  0  0
 15 14  2  0  0  0  0
 16 17  2  0  0  0  0
 16 15  1  0  0  0  0
 17 18  1  0  0  0  0
 18  9  2  0  0  0  0
 18 13  1  0  0  0  0
 19 23  1  0  0  0  0
 19  2  1  0  0  0  0
 20 19  1  0  0  0  0
 21 20  2  0  0  0  0
 21 22  1  0  0  0  0
 22 25  1  0  0  0  0
 22 23  2  0  0  0  0
 24 20  1  0  0  0  0
M  END
>  <minimizedAffinity>
-4.88079357

>  <minimizedRMSD>
4.12194681

$$$$
