REMARK  Name = 
REMARK  5 active torsions:
REMARK  status: ('A' for Active; 'I' for Inactive)
REMARK    1  A    between atoms: N_1  and  C_6
REMARK    2  A    between atoms: C_5  and  O_13
REMARK    3  A    between atoms: C_6  and  C_9
REMARK    4  A    between atoms: O_13  and  C_14
REMARK    5  A    between atoms: C_16  and  C_33
REMARK                            x       y       z     vdW  Elec       q    Type
REMARK                         _______ _______ _______ _____ _____    ______ ____
ROOT
ATOM      1  N   UNL     1      37.644  25.376  34.369  0.00  0.00    +0.000 NA
ATOM      2  C   UNL     1      37.116  25.407  33.020  0.00  0.00    +0.000 C 
ATOM      3  C   UNL     1      36.844  26.844  32.731  0.00  0.00    +0.000 C 
ATOM      4  C   UNL     1      37.295  27.569  33.989  0.00  0.00    +0.000 C 
ATOM      5  C   UNL     1      38.400  26.580  34.463  0.00  0.00    +0.000 C 
ATOM      6  H   UNL     1      37.873  25.012  32.299  0.00  0.00    +0.000 HD
ATOM      7  H   UNL     1      36.173  24.830  32.922  0.00  0.00    +0.000 HD
ATOM      8  H   UNL     1      37.437  27.255  31.892  0.00  0.00    +0.000 HD
ATOM      9  H   UNL     1      35.751  27.065  32.649  0.00  0.00    +0.000 HD
ATOM     10  H   UNL     1      37.767  28.536  33.783  0.00  0.00    +0.000 HD
ATOM     11  H   UNL     1      36.513  27.579  34.766  0.00  0.00    +0.000 HD
ATOM     12  H   UNL     1      38.704  26.894  35.471  0.00  0.00    +0.000 HD
ENDROOT
BRANCH   1  13
ATOM     13  C   UNL     1      38.553  24.281  34.556  0.00  0.00    +0.000 C 
ATOM     14  H   UNL     1      39.561  24.465  34.125  0.00  0.00    +0.000 HD
ATOM     15  H   UNL     1      38.115  23.401  34.038  0.00  0.00    +0.000 HD
BRANCH  13  18
ATOM     16  C   UNL     1      37.865  23.907  38.265  0.00  0.00    +0.000 A 
ATOM     17  C   UNL     1      37.688  24.282  36.935  0.00  0.00    +0.000 A 
ATOM     18  C   UNL     1      38.678  23.915  36.004  0.00  0.00    +0.000 A 
ATOM     19  N   UNL     1      39.752  23.214  36.464  0.00  0.00    +0.000 NA
ATOM     20  C   UNL     1      39.869  22.880  37.763  0.00  0.00    +0.000 A 
ATOM     21  N   UNL     1      38.924  23.230  38.652  0.00  0.00    +0.000 NA
ATOM     22  H   UNL     1      37.083  24.208  38.949  0.00  0.00    +0.000 HD
ATOM     23  H   UNL     1      36.843  24.834  36.569  0.00  0.00    +0.000 HD
ATOM     24  H   UNL     1      40.691  22.327  38.190  0.00  0.00    +0.000 HD
ENDBRANCH  13  18
ENDBRANCH   1  13
BRANCH   5  25
ATOM     25  O   UNL     1      39.487  26.595  33.640  0.00  0.00    +0.000 OA
BRANCH  25  26
ATOM     26  C   UNL     1      40.608  27.169  34.185  0.00  0.00    +0.000 C 
ATOM     27  C   UNL     1      41.692  27.528  33.204  0.00  0.00    +0.000 C 
ATOM     28  C   UNL     1      41.915  26.432  34.205  0.00  0.00    +0.000 C 
ATOM     29  H   UNL     1      40.404  27.714  35.112  0.00  0.00    +0.000 HD
ATOM     30  H   UNL     1      41.533  27.238  32.124  0.00  0.00    +0.000 HD
ATOM     31  H   UNL     1      42.185  28.503  33.256  0.00  0.00    +0.000 HD
ATOM     32  H   UNL     1      41.835  25.424  33.769  0.00  0.00    +0.000 HD
BRANCH  28  33
ATOM     33  C   UNL     1      42.816  26.742  35.303  0.00  0.00    +0.000 A 
ATOM     34  C   UNL     1      42.492  26.609  36.636  0.00  0.00    +0.000 A 
ATOM     35  C   UNL     1      43.351  26.879  37.687  0.00  0.00    +0.000 A 
ATOM     36  C   UNL     1      44.633  27.315  37.444  0.00  0.00    +0.000 A 
ATOM     37  C   UNL     1      45.010  27.467  36.127  0.00  0.00    +0.000 A 
ATOM     38  C   UNL     1      46.294  27.919  35.915  0.00  0.00    +0.000 A 
ATOM     39  C   UNL     1      46.750  28.114  34.630  0.00  0.00    +0.000 A 
ATOM     40  C   UNL     1      45.872  27.838  33.607  0.00  0.00    +0.000 A 
ATOM     41  C   UNL     1      44.595  27.387  33.851  0.00  0.00    +0.000 A 
ATOM     42  C   UNL     1      44.108  27.182  35.108  0.00  0.00    +0.000 A 
ENDBRANCH  28  33
ENDBRANCH  25  26
ENDBRANCH   5  25
TORSDOF 5
