
     RDKit          3D

 49 53  0  0  0  0  0  0  0  0999 V2000
   37.6437   25.3757   34.3691 N   0  0  0  0  0  0  0  0  0  0  0  0
   37.1159   25.4074   33.0196 C   0  0  0  0  0  0  0  0  0  0  0  0
   36.8440   26.8437   32.7315 C   0  0  0  0  0  0  0  0  0  0  0  0
   37.2955   27.5692   33.9885 C   0  0  0  0  0  0  0  0  0  0  0  0
   38.4000   26.5802   34.4630 C   0  0  2  0  0  0  0  0  0  0  0  0
   38.5525   24.2808   34.5564 C   0  0  0  0  0  0  0  0  0  0  0  0
   37.8649   23.9071   38.2653 C   0  0  0  0  0  0  0  0  0  0  0  0
   37.6879   24.2815   36.9349 C   0  0  0  0  0  0  0  0  0  0  0  0
   38.6780   23.9147   36.0037 C   0  0  0  0  0  0  0  0  0  0  0  0
   39.7522   23.2137   36.4637 N   0  0  0  0  0  0  0  0  0  0  0  0
   39.8693   22.8796   37.7625 C   0  0  0  0  0  0  0  0  0  0  0  0
   38.9240   23.2296   38.6522 N   0  0  0  0  0  0  0  0  0  0  0  0
   39.4875   26.5953   33.6397 O   0  0  0  0  0  0  0  0  0  0  0  0
   40.6078   27.1693   34.1853 C   0  0  2  0  0  0  0  0  0  0  0  0
   41.6918   27.5281   33.2038 C   0  0  0  0  0  0  0  0  0  0  0  0
   41.9150   26.4322   34.2049 C   0  0  1  0  0  0  0  0  0  0  0  0
   37.8726   25.0115   32.2994 H   0  0  0  0  0  0  0  0  0  0  0  0
   36.1728   24.8300   32.9215 H   0  0  0  0  0  0  0  0  0  0  0  0
   37.4371   27.2549   31.8920 H   0  0  0  0  0  0  0  0  0  0  0  0
   35.7513   27.0648   32.6489 H   0  0  0  0  0  0  0  0  0  0  0  0
   37.7669   28.5364   33.7829 H   0  0  0  0  0  0  0  0  0  0  0  0
   36.5127   27.5792   34.7663 H   0  0  0  0  0  0  0  0  0  0  0  0
   38.7039   26.8941   35.4710 H   0  0  0  0  0  0  0  0  0  0  0  0
   39.5611   24.4653   34.1248 H   0  0  0  0  0  0  0  0  0  0  0  0
   38.1151   23.4010   34.0382 H   0  0  0  0  0  0  0  0  0  0  0  0
   37.0828   24.2076   38.9491 H   0  0  0  0  0  0  0  0  0  0  0  0
   36.8425   24.8340   36.5694 H   0  0  0  0  0  0  0  0  0  0  0  0
   40.6910   22.3266   38.1897 H   0  0  0  0  0  0  0  0  0  0  0  0
   40.4035   27.7143   35.1119 H   0  0  0  0  0  0  0  0  0  0  0  0
   41.5331   27.2385   32.1238 H   0  0  0  0  0  0  0  0  0  0  0  0
   42.1851   28.5029   33.2560 H   0  0  0  0  0  0  0  0  0  0  0  0
   41.8354   25.4245   33.7687 H   0  0  0  0  0  0  0  0  0  0  0  0
   42.8163   26.7423   35.3029 C   0  0  0  0  0  0  0  0  0  0  0  0
   42.4915   26.6086   36.6361 C   0  0  0  0  0  0  0  0  0  0  0  0
   43.3512   26.8791   37.6874 C   0  0  0  0  0  0  0  0  0  0  0  0
   44.6326   27.3153   37.4438 C   0  0  0  0  0  0  0  0  0  0  0  0
   45.0099   27.4670   36.1272 C   0  0  0  0  0  0  0  0  0  0  0  0
   46.2941   27.9194   35.9148 C   0  0  0  0  0  0  0  0  0  0  0  0
   46.7503   28.1145   34.6301 C   0  0  0  0  0  0  0  0  0  0  0  0
   45.8720   27.8384   33.6066 C   0  0  0  0  0  0  0  0  0  0  0  0
   44.5949   27.3869   33.8514 C   0  0  0  0  0  0  0  0  0  0  0  0
   44.1083   27.1817   35.1080 C   0  0  0  0  0  0  0  0  0  0  0  0
   41.5451   26.2819   36.9750 H   0  0  0  0  0  0  0  0  0  0  0  0
   43.0781   26.7679   38.7386 H   0  0  0  0  0  0  0  0  0  0  0  0
   45.3167   27.5308   38.2444 H   0  0  0  0  0  0  0  0  0  0  0  0
   46.9597   28.1276   36.7240 H   0  0  0  0  0  0  0  0  0  0  0  0
   47.7482   28.4665   34.4542 H   0  0  0  0  0  0  0  0  0  0  0  0
   46.2113   27.9876   32.6058 H   0  0  0  0  0  0  0  0  0  0  0  0
   43.9795   27.1993   33.0062 H   0  0  0  0  0  0  0  0  0  0  0  0
  1  5  1  0
  1  6  1  0
  2  1  1  0
  3  2  1  0
  3  4  1  0
  4  5  1  0
  6  9  1  0
  7 12  2  0
  8  7  1  0
  9 10  1  0
  9  8  2  0
 10 11  2  0
 11 12  1  0
 13 14  1  0
 13  5  1  0
 14 16  1  0
 15 14  1  0
 15 16  1  0
  2 17  1  0
  2 18  1  0
  3 19  1  0
  3 20  1  0
  4 21  1  0
  4 22  1  0
  5 23  1  1
  6 24  1  0
  6 25  1  0
  7 26  1  0
  8 27  1  0
 11 28  1  0
 14 29  1  1
 15 30  1  0
 15 31  1  0
 16 32  1  6
 33 34  2  0
 34 35  1  0
 35 36  2  0
 36 37  1  0
 37 38  2  0
 38 39  1  0
 39 40  2  0
 40 41  1  0
 41 42  2  0
 42 33  1  0
 42 37  1  0
 34 43  1  0
 35 44  1  0
 36 45  1  0
 38 46  1  0
 39 47  1  0
 40 48  1  0
 41 49  1  0
 16 33  1  0
M  ISO  8  17  13  18  13  19  13  20  13  21  13  22  13  23  13  24   8
M  ISO  8  25   8  26  14  27  14  28  14  29  13  30  13  31  13  32  13
M  END
>  <DihAtoms>  (1) 
13,15,32,33

>  <DihDeg>  (1) 
-62.33902953054987

$$$$
