
 OpenBabel03262517433D

 44 48  0  0  0  0  0  0  0  0999 V2000
   39.9390   22.1480   34.4410 C   0  0  0  0  0  0  0  0  0  0  0  0
   38.6910   21.9900   33.8670 C   0  0  0  0  0  0  0  0  0  0  0  0
   38.5420   21.1940   32.7540 C   0  0  0  0  0  0  0  0  0  0  0  0
   39.6400   20.5800   32.2470 N   0  0  0  0  0  0  0  0  0  0  0  0
   40.8480   20.7520   32.8280 C   0  0  0  0  0  0  0  0  0  0  0  0
   41.0180   21.5140   33.9030 N   0  0  0  0  0  0  0  0  0  0  0  0
   37.3500   20.9210   32.0430 N   0  0  0  0  0  0  0  0  0  0  0  0
   36.8350   21.6810   30.9350 C   0  0  0  0  0  0  0  0  0  0  0  0
   35.4720   22.2240   31.2790 C   0  0  0  0  0  0  0  0  0  0  0  0
   34.9780   21.6060   32.4400 O   0  0  0  0  0  0  0  0  0  0  0  0
   35.0100   20.2380   32.2730 C   0  0  0  0  0  0  0  0  0  0  0  0
   36.4570   19.7940   32.3530 C   0  0  0  0  0  0  0  0  0  0  0  0
   37.7740   22.4360   34.2000 H   0  0  0  0  0  0  0  0  0  0  0  0
   41.7160   20.2530   32.4100 H   0  0  0  0  0  0  0  0  0  0  0  0
   36.8330   20.9920   30.0600 H   0  0  0  0  0  0  0  0  0  0  0  0
   37.5330   22.5350   30.7280 H   0  0  0  0  0  0  0  0  0  0  0  0
   34.7780   21.9450   30.4400 H   0  0  0  0  0  0  0  0  0  0  0  0
   35.4950   23.3140   31.4020 H   0  0  0  0  0  0  0  0  0  0  0  0
   34.6170   20.0050   31.2440 H   0  0  0  0  0  0  0  0  0  0  0  0
   34.3580   19.7140   32.9900 H   0  0  0  0  0  0  0  0  0  0  0  0
   36.7130   19.4760   33.3920 H   0  0  0  0  0  0  0  0  0  0  0  0
   36.6130   18.9690   31.6430 H   0  0  0  0  0  0  0  0  0  0  0  0
   40.0300   22.9880   35.5920 C   0  0  0  0  0  0  0  0  0  0  0  0
   40.4490   22.6040   36.7440 O   0  0  0  0  0  0  0  0  0  0  0  0
   39.6600   24.3960   35.6060 C   0  0  0  0  0  0  0  0  0  0  0  0
   38.5150   24.8540   36.2180 C   0  0  0  0  0  0  0  0  0  0  0  0
   38.2080   26.2020   36.2060 C   0  0  0  0  0  0  0  0  0  0  0  0
   39.0290   27.1210   35.5900 C   0  0  0  0  0  0  0  0  0  0  0  0
   40.1900   26.6800   34.9680 C   0  0  0  0  0  0  0  0  0  0  0  0
   40.4710   25.3150   34.9970 C   0  0  0  0  0  0  0  0  0  0  0  0
   37.8950   24.0880   36.6930 H   0  0  0  0  0  0  0  0  0  0  0  0
   37.2830   26.4160   36.7220 H   0  0  0  0  0  0  0  0  0  0  0  0
   38.6680   28.1400   35.6580 H   0  0  0  0  0  0  0  0  0  0  0  0
   40.7740   27.4420   34.5140 H   0  0  0  0  0  0  0  0  0  0  0  0
   41.7170   25.0210   34.2960 C   0  0  0  0  0  0  0  0  0  0  0  0
   41.5780   24.9690   32.9110 C   0  0  0  0  0  0  0  0  0  0  0  0
   42.6610   24.7030   32.1040 C   0  0  0  0  0  0  0  0  0  0  0  0
   43.9170   24.4790   32.6620 C   0  0  0  0  0  0  0  0  0  0  0  0
   44.0450   24.5320   34.0360 C   0  0  0  0  0  0  0  0  0  0  0  0
   45.2690   24.3170   34.6470 C   0  0  0  0  0  0  0  0  0  0  0  0
   45.3490   24.3810   36.0270 C   0  0  0  0  0  0  0  0  0  0  0  0
   44.2380   24.6530   36.8230 C   0  0  0  0  0  0  0  0  0  0  0  0
   43.0090   24.8690   36.2350 C   0  0  0  0  0  0  0  0  0  0  0  0
   42.9710   24.7970   34.8590 C   0  0  0  0  0  0  0  0  0  0  0  0
  1 23  1  0  0  0  0
  2 13  1  0  0  0  0
  2  1  2  0  0  0  0
  3  2  1  0  0  0  0
  4  3  2  0  0  0  0
  4  5  1  0  0  0  0
  5  6  2  0  0  0  0
  6  1  1  0  0  0  0
  7 12  1  0  0  0  0
  7  3  1  0  0  0  0
  8  9  1  0  0  0  0
  8  7  1  0  0  0  0
  9 18  1  0  0  0  0
  9 10  1  0  0  0  0
 11 12  1  0  0  0  0
 11 10  1  0  0  0  0
 11 20  1  0  0  0  0
 12 21  1  0  0  0  0
 14  5  1  0  0  0  0
 15  8  1  0  0  0  0
 16  8  1  0  0  0  0
 17  9  1  0  0  0  0
 19 11  1  0  0  0  0
 22 12  1  0  0  0  0
 23 25  1  0  0  0  0
 23 24  2  0  0  0  0
 25 26  1  0  0  0  0
 26 31  1  0  0  0  0
 27 26  2  0  0  0  0
 27 32  1  0  0  0  0
 28 33  1  0  0  0  0
 28 27  1  0  0  0  0
 29 30  1  0  0  0  0
 29 28  2  0  0  0  0
 30 25  2  0  0  0  0
 34 29  1  0  0  0  0
 35 44  1  0  0  0  0
 35 30  1  0  0  0  0
 36 35  2  0  0  0  0
 37 38  2  0  0  0  0
 37 36  1  0  0  0  0
 38 39  1  0  0  0  0
 39 40  2  0  0  0  0
 39 44  1  0  0  0  0
 40 41  1  0  0  0  0
 41 42  2  0  0  0  0
 43 42  1  0  0  0  0
 44 43  2  0  0  0  0
M  END
>  <minimizedAffinity>
-5.92928362

>  <minimizedRMSD>
0.573376417

$$$$
