
     RDKit          3D

 51 56  0  0  0  0  0  0  0  0999 V2000
   39.6782   22.7503   37.5983 C   0  0  0  0  0  0  0  0  0  0  0  0
   39.0423   23.6287   38.4784 C   0  0  0  0  0  0  0  0  0  0  0  0
   37.6655   23.8863   38.2535 C   0  0  0  0  0  0  0  0  0  0  0  0
   37.0491   23.2852   37.2245 N   0  0  0  0  0  0  0  0  0  0  0  0
   37.7201   22.4377   36.3989 C   0  0  0  0  0  0  0  0  0  0  0  0
   39.0031   22.1835   36.5901 N   0  0  0  0  0  0  0  0  0  0  0  0
   37.1401   21.7588   35.2840 N   0  0  0  0  0  0  0  0  0  0  0  0
   37.6989   21.8451   34.0384 C   0  0  0  0  0  0  0  0  0  0  0  0
   37.0782   21.1584   33.0081 C   0  0  0  0  0  0  0  0  0  0  0  0
   35.9388   20.4083   33.2020 C   0  0  0  0  0  0  0  0  0  0  0  0
   35.3720   19.7845   32.2744 O   0  0  0  0  0  0  0  0  0  0  0  0
   35.4252   20.3501   34.4333 N   0  0  0  0  0  0  0  0  0  0  0  0
   36.0138   21.0147   35.4650 C   0  0  0  0  0  0  0  0  0  0  0  0
   35.5484   20.9709   36.6173 O   0  0  0  0  0  0  0  0  0  0  0  0
   41.0031   22.5126   37.8280 O   0  0  0  0  0  0  0  0  0  0  0  0
   41.9754   22.4053   36.8565 C   0  0  0  0  0  0  0  0  0  0  0  0
   42.3498   23.3888   35.9438 C   0  0  0  0  0  0  0  0  0  0  0  0
   43.3420   22.9179   35.1423 N   0  0  0  0  0  0  0  0  0  0  0  0
   43.6516   21.6461   35.4833 C   0  0  0  0  0  0  0  0  0  0  0  0
   44.5624   20.7420   34.9954 C   0  0  0  0  0  0  0  0  0  0  0  0
   44.6485   19.4854   35.5648 C   0  0  0  0  0  0  0  0  0  0  0  0
   43.8005   19.1583   36.6332 C   0  0  0  0  0  0  0  0  0  0  0  0
   42.8882   20.0855   37.1104 C   0  0  0  0  0  0  0  0  0  0  0  0
   42.8039   21.3347   36.5431 C   0  0  0  0  0  0  0  0  0  0  0  0
   39.5685   24.0919   39.2919 H   0  0  0  0  0  0  0  0  0  0  0  0
   37.1270   24.5603   38.9081 H   0  0  0  0  0  0  0  0  0  0  0  0
   38.6019   22.4379   33.8771 H   0  0  0  0  0  0  0  0  0  0  0  0
   37.5241   21.2273   32.0139 H   0  0  0  0  0  0  0  0  0  0  0  0
   34.5621   19.8087   34.6903 H   0  0  0  0  0  0  0  0  0  0  0  0
   41.9185   24.3769   35.8805 H   0  0  0  0  0  0  0  0  0  0  0  0
   43.8400   23.4021   34.3612 H   0  0  0  0  0  0  0  0  0  0  0  0
   45.1968   21.0062   34.1860 H   0  0  0  0  0  0  0  0  0  0  0  0
   45.3779   18.8126   35.1471 H   0  0  0  0  0  0  0  0  0  0  0  0
   43.9227   18.1596   37.0288 H   0  0  0  0  0  0  0  0  0  0  0  0
   42.0339   19.7012   38.2157 C   0  0  0  0  0  0  0  0  0  0  0  0
   40.9397   20.5447   38.4199 C   0  0  0  0  0  0  0  0  0  0  0  0
   40.0768   20.2266   39.4728 C   0  0  0  0  0  0  0  0  0  0  0  0
   40.3463   19.1137   40.2434 C   0  0  0  0  0  0  0  0  0  0  0  0
   41.4362   18.2776   40.0362 C   0  0  0  0  0  0  0  0  0  0  0  0
   41.6812   17.1711   40.8229 C   0  0  0  0  0  0  0  0  0  0  0  0
   42.7954   16.3649   40.5671 C   0  0  0  0  0  0  0  0  0  0  0  0
   43.6373   16.7126   39.5058 C   0  0  0  0  0  0  0  0  0  0  0  0
   43.3859   17.8326   38.7129 C   0  0  0  0  0  0  0  0  0  0  0  0
   42.2786   18.6043   38.9938 C   0  0  0  0  0  0  0  0  0  0  0  0
   40.7360   21.4147   37.8113 H   0  0  0  0  0  0  0  0  0  0  0  0
   39.2243   20.8684   39.6459 H   0  0  0  0  0  0  0  0  0  0  0  0
   39.6516   18.9065   41.0468 H   0  0  0  0  0  0  0  0  0  0  0  0
   40.9973   16.9281   41.6491 H   0  0  0  0  0  0  0  0  0  0  0  0
   43.0081   15.4859   41.1760 H   0  0  0  0  0  0  0  0  0  0  0  0
   44.5254   16.1128   39.2633 H   0  0  0  0  0  0  0  0  0  0  0  0
   44.0261   18.1157   37.8888 H   0  0  0  0  0  0  0  0  0  0  0  0
  1 15  1  0
  1  2  2  0
  3  2  1  0
  4  3  2  0
  5  6  2  0
  5  4  1  0
  6  1  1  0
  7 13  1  0
  7  5  1  0
  8  7  1  0
  9 10  1  0
  9  8  2  0
 10 12  1  0
 11 10  2  0
 12 13  1  0
 13 14  2  0
 16 15  1  0
 17 16  2  0
 18 19  1  0
 18 17  1  0
 19 24  2  0
 20 19  1  0
 20 21  2  0
 21 22  1  0
 22 23  2  0
 24 16  1  0
 24 23  1  0
  2 25  1  0
  3 26  1  0
  8 27  1  0
  9 28  1  0
 12 29  1  0
 17 30  1  0
 18 31  1  0
 20 32  1  0
 21 33  1  0
 22 34  1  0
 35 36  2  0
 36 37  1  0
 37 38  2  0
 38 39  1  0
 39 40  2  0
 40 41  1  0
 41 42  2  0
 42 43  1  0
 43 44  2  0
 44 35  1  0
 44 39  1  0
 36 45  1  0
 37 46  1  0
 38 47  1  0
 40 48  1  0
 41 49  1  0
 42 50  1  0
 43 51  1  0
 23 35  1  0
M  ISO  8  25  14  26  14  27  14  28  14  29   9  30  14  31   9  32  14
M  ISO  2  33  14  34  14
M  END
>  <DihAtoms>  (1) 
21,22,34,35

>  <DihDeg>  (1) 
-89.99961988565344

$$$$
