
 OpenBabel03262518033D

 27 30  0  0  0  0  0  0  0  0999 V2000
   44.0850   20.2140   36.3760 C   0  0  0  0  0  0  0  0  0  0  0  0
   42.7340   20.4990   36.5740 C   0  0  0  0  0  0  0  0  0  0  0  0
   42.3030   21.7750   36.2830 C   0  0  0  0  0  0  0  0  0  0  0  0
   43.2520   22.6310   35.8280 N   0  0  0  0  0  0  0  0  0  0  0  0
   44.5350   22.3720   35.6360 C   0  0  0  0  0  0  0  0  0  0  0  0
   44.9370   21.1170   35.9270 N   0  0  0  0  0  0  0  0  0  0  0  0
   44.4810   19.2220   36.5890 H   0  0  0  0  0  0  0  0  0  0  0  0
   42.0450   19.7560   36.9410 H   0  0  0  0  0  0  0  0  0  0  0  0
   45.2730   23.5250   35.1370 C   0  0  0  0  0  0  0  0  0  0  0  0
   45.2690   23.8520   33.8010 C   0  0  0  0  0  0  0  0  0  0  0  0
   45.9520   24.9330   33.2880 C   0  0  0  0  0  0  0  0  0  0  0  0
   46.6890   25.7610   34.0980 C   0  0  0  0  0  0  0  0  0  0  0  0
   46.7210   25.4710   35.4440 C   0  0  0  0  0  0  0  0  0  0  0  0
   47.4600   26.2980   36.2620 C   0  0  0  0  0  0  0  0  0  0  0  0
   47.5360   26.0700   37.6090 C   0  0  0  0  0  0  0  0  0  0  0  0
   46.8350   24.9670   38.1040 C   0  0  0  0  0  0  0  0  0  0  0  0
   46.1110   24.1700   37.2460 C   0  0  0  0  0  0  0  0  0  0  0  0
   46.0220   24.3810   35.9070 C   0  0  0  0  0  0  0  0  0  0  0  0
   40.9100   22.1900   36.4540 C   0  0  0  0  0  0  0  0  0  0  0  0
   39.7950   22.1490   35.6640 N   0  0  0  0  0  0  0  0  0  0  0  0
   38.8000   22.6640   36.3250 O   0  0  0  0  0  0  0  0  0  0  0  0
   39.2060   23.0440   37.5200 C   0  0  0  0  0  0  0  0  0  0  0  0
   40.5120   22.7560   37.6110 N   0  0  0  0  0  0  0  0  0  0  0  0
   38.4100   23.6750   38.5940 C   0  0  0  0  0  0  0  0  0  0  0  0
   39.1980   23.8890   39.6990 F   0  0  0  0  0  0  0  0  0  0  0  0
   37.3420   22.8660   38.9710 F   0  0  0  0  0  0  0  0  0  0  0  0
   37.9480   24.9080   38.1740 F   0  0  0  0  0  0  0  0  0  0  0  0
  1  2  1  0  0  0  0
  1  7  1  0  0  0  0
  2  8  1  0  0  0  0
  3 19  1  0  0  0  0
  3  2  2  0  0  0  0
  4  3  1  0  0  0  0
  5  4  2  0  0  0  0
  5  6  1  0  0  0  0
  6  1  2  0  0  0  0
  9  5  1  0  0  0  0
  9 18  1  0  0  0  0
 10  9  2  0  0  0  0
 11 10  1  0  0  0  0
 11 12  2  0  0  0  0
 12 13  1  0  0  0  0
 13 18  2  0  0  0  0
 13 14  1  0  0  0  0
 14 15  2  0  0  0  0
 15 16  1  0  0  0  0
 17 16  2  0  0  0  0
 18 17  1  0  0  0  0
 19 23  1  0  0  0  0
 20 21  1  0  0  0  0
 20 19  2  0  0  0  0
 21 22  1  0  0  0  0
 22 23  2  0  0  0  0
 22 24  1  0  0  0  0
 24 26  1  0  0  0  0
 24 25  1  0  0  0  0
 27 24  1  0  0  0  0
M  END
>  <minimizedAffinity>
-5.61529589

>  <minimizedRMSD>
3.48053908

$$$$
