
 OpenBabel03262517003D

 26 29  0  0  0  0  0  0  0  0999 V2000
   39.4130   22.8370   37.2300 C   0  0  0  0  0  0  0  0  0  0  0  0
   38.4910   23.5480   36.4440 C   0  0  0  0  0  0  0  0  0  0  0  0
   37.5790   24.0320   37.3240 N   0  0  0  0  0  0  0  0  0  0  0  0
   37.9490   23.6220   38.5660 C   0  0  0  0  0  0  0  0  0  0  0  0
   39.0470   22.9020   38.5390 N   0  0  0  0  0  0  0  0  0  0  0  0
   37.4180   23.8500   39.4850 H   0  0  0  0  0  0  0  0  0  0  0  0
   39.5720   22.4530   39.2990 H   0  0  0  0  0  0  0  0  0  0  0  0
   38.4290   23.7650   35.0100 C   0  0  0  0  0  0  0  0  0  0  0  0
   37.8190   22.8600   34.1460 C   0  0  0  0  0  0  0  0  0  0  0  0
   37.7260   22.9930   32.7770 C   0  0  0  0  0  0  0  0  0  0  0  0
   38.2920   24.1330   32.2400 C   0  0  0  0  0  0  0  0  0  0  0  0
   38.9180   25.0890   33.0100 C   0  0  0  0  0  0  0  0  0  0  0  0
   39.4730   26.2120   32.4300 C   0  0  0  0  0  0  0  0  0  0  0  0
   40.0910   27.1340   33.2670 C   0  0  0  0  0  0  0  0  0  0  0  0
   40.1390   26.9170   34.6210 C   0  0  0  0  0  0  0  0  0  0  0  0
   39.5920   25.8070   35.2030 C   0  0  0  0  0  0  0  0  0  0  0  0
   38.9720   24.8810   34.3860 C   0  0  0  0  0  0  0  0  0  0  0  0
   42.5400   20.8450   37.0250 C   0  0  0  0  0  0  0  0  0  0  0  0
   41.4210   21.4850   37.5540 C   0  0  0  0  0  0  0  0  0  0  0  0
   40.5840   22.1560   36.6670 C   0  0  0  0  0  0  0  0  0  0  0  0
   40.9000   22.1500   35.3420 N   0  0  0  0  0  0  0  0  0  0  0  0
   41.9810   21.5240   34.8700 C   0  0  0  0  0  0  0  0  0  0  0  0
   42.7890   20.8800   35.7070 N   0  0  0  0  0  0  0  0  0  0  0  0
   43.1770   20.3310   37.7280 H   0  0  0  0  0  0  0  0  0  0  0  0
   41.2450   21.4400   38.6260 H   0  0  0  0  0  0  0  0  0  0  0  0
   42.2400   21.5110   33.8360 H   0  0  0  0  0  0  0  0  0  0  0  0
  1  5  1  0  0  0  0
  2  1  2  0  0  0  0
  2  3  1  0  0  0  0
  3  4  2  0  0  0  0
  4  6  1  0  0  0  0
  5  4  1  0  0  0  0
  5  7  1  0  0  0  0
  8  2  1  0  0  0  0
  9  8  2  0  0  0  0
 10  9  1  0  0  0  0
 11 10  2  0  0  0  0
 11 12  1  0  0  0  0
 12 17  1  0  0  0  0
 13 12  2  0  0  0  0
 13 14  1  0  0  0  0
 14 15  2  0  0  0  0
 15 16  1  0  0  0  0
 17  8  1  0  0  0  0
 17 16  2  0  0  0  0
 18 19  1  0  0  0  0
 18 24  1  0  0  0  0
 19 25  1  0  0  0  0
 20  1  1  0  0  0  0
 20 19  2  0  0  0  0
 21 20  1  0  0  0  0
 22 21  2  0  0  0  0
 22 23  1  0  0  0  0
 23 18  2  0  0  0  0
 26 22  1  0  0  0  0
M  END
>  <minimizedAffinity>
-5.73191357

>  <minimizedRMSD>
0.53858614

$$$$
