
     RDKit          3D

 42 45  0  0  0  0  0  0  0  0999 V2000
   43.1315   23.3339   36.5342 C   0  0  0  0  0  0  0  0  0  0  0  0
   41.7302   23.1057   36.3979 C   0  0  0  0  0  0  0  0  0  0  0  0
   41.1729   24.0430   35.6270 C   0  0  0  0  0  0  0  0  0  0  0  0
   41.9062   25.0824   35.0575 N   0  0  0  0  0  0  0  0  0  0  0  0
   43.2031   25.2285   35.2290 C   0  0  0  0  0  0  0  0  0  0  0  0
   43.8133   24.3403   35.9765 N   0  0  0  0  0  0  0  0  0  0  0  0
   41.2362   21.9617   37.0836 C   0  0  0  0  0  0  0  0  0  0  0  0
   40.4798   22.3141   38.2305 F   0  0  0  0  0  0  0  0  0  0  0  0
   42.0320   21.1844   37.8386 F   0  0  0  0  0  0  0  0  0  0  0  0
   40.1480   21.2839   36.5446 F   0  0  0  0  0  0  0  0  0  0  0  0
   39.7888   23.9100   35.3811 C   0  0  0  0  0  0  0  0  0  0  0  0
   39.0135   25.0917   35.6947 C   0  0  0  0  0  0  0  0  0  0  0  0
   37.7738   24.6543   36.4902 C   0  0  2  0  0  0  0  0  0  0  0  0
   38.0243   24.3930   37.9299 C   0  0  0  0  0  0  0  0  0  0  0  0
   37.5534   23.3332   36.9577 C   0  0  1  0  0  0  0  0  0  0  0  0
   43.7780   22.6659   37.1360 H   0  0  0  0  0  0  0  0  0  0  0  0
   43.6456   26.0742   34.7329 H   0  0  0  0  0  0  0  0  0  0  0  0
   39.2349   23.0330   35.5660 H   0  0  0  0  0  0  0  0  0  0  0  0
   39.7704   23.9058   34.2241 H   0  0  0  0  0  0  0  0  0  0  0  0
   38.7595   25.7954   34.8759 H   0  0  0  0  0  0  0  0  0  0  0  0
   39.6089   25.7290   36.4147 H   0  0  0  0  0  0  0  0  0  0  0  0
   36.9439   25.3544   36.2940 H   0  0  0  0  0  0  0  0  0  0  0  0
   39.0189   24.5224   38.2892 H   0  0  0  0  0  0  0  0  0  0  0  0
   37.2702   24.8030   38.6694 H   0  0  0  0  0  0  0  0  0  0  0  0
   37.9792   22.4318   37.2111 H   0  0  0  0  0  0  0  0  0  0  0  0
   36.0564   23.0223   37.0136 C   0  0  0  0  0  0  0  0  0  0  0  0
   35.0967   23.9344   36.7272 C   0  0  0  0  0  0  0  0  0  0  0  0
   33.7525   23.6554   36.7816 C   0  0  0  0  0  0  0  0  0  0  0  0
   33.3434   22.3904   37.1436 C   0  0  0  0  0  0  0  0  0  0  0  0
   34.2765   21.4450   37.4394 C   0  0  0  0  0  0  0  0  0  0  0  0
   33.8544   20.1812   37.8006 C   0  0  0  0  0  0  0  0  0  0  0  0
   34.7439   19.1915   38.1083 C   0  0  0  0  0  0  0  0  0  0  0  0
   36.0808   19.4876   38.0486 C   0  0  0  0  0  0  0  0  0  0  0  0
   36.4913   20.7593   37.6847 C   0  0  0  0  0  0  0  0  0  0  0  0
   35.6108   21.7673   37.3720 C   0  0  0  0  0  0  0  0  0  0  0  0
   35.3557   24.9412   36.4409 H   0  0  0  0  0  0  0  0  0  0  0  0
   33.0094   24.4186   36.5432 H   0  0  0  0  0  0  0  0  0  0  0  0
   32.2733   22.1985   37.1781 H   0  0  0  0  0  0  0  0  0  0  0  0
   32.7904   19.9385   37.8501 H   0  0  0  0  0  0  0  0  0  0  0  0
   34.4403   18.1804   38.3980 H   0  0  0  0  0  0  0  0  0  0  0  0
   36.8059   18.7090   38.2911 H   0  0  0  0  0  0  0  0  0  0  0  0
   37.5388   20.9265   37.6568 H   0  0  0  0  0  0  0  0  0  0  0  0
  2  1  2  0
  2  7  1  0
  3  2  1  0
  4  5  1  0
  4  3  2  0
  5  6  2  0
  6  1  1  0
  7  9  1  0
  7  8  1  0
 10  7  1  0
 11  3  1  0
 11 12  1  0
 12 13  1  0
 13 15  1  0
 13 14  1  0
 15 14  1  0
  1 16  1  0
  5 17  1  0
 11 18  1  0
 11 19  1  0
 12 20  1  0
 12 21  1  0
 13 22  1  1
 14 23  1  0
 14 24  1  0
 15 25  1  6
 26 27  2  0
 27 28  1  0
 28 29  2  0
 29 30  1  0
 30 31  2  0
 31 32  1  0
 32 33  2  0
 33 34  1  0
 34 35  2  0
 35 26  1  0
 35 30  1  0
 27 36  1  0
 28 37  1  0
 29 38  1  0
 31 39  1  0
 32 40  1  0
 33 41  1  0
 34 42  1  0
 15 26  1  0
M  ISO  8  16  14  17  14  18   8  19   8  20   8  21   8  22  13  23  13
M  ISO  2  24  13  25  13
M  END
>  <DihAtoms>  (1) 
12,14,25,26

>  <DihDeg>  (1) 
-93.71395844310678

$$$$
