
 OpenBabel03262519453D

 33 35  0  0  1  0  0  0  0  0999 V2000
   38.7810   25.1340   34.7530 C   0  0  0  0  0  0  0  0  0  0  0  0
   38.5180   26.1250   35.0980 H   0  0  0  0  0  0  0  0  0  0  0  0
   39.8680   25.1620   34.5070 H   0  0  0  0  0  0  0  0  0  0  0  0
   38.0620   24.7420   33.5980 N   0  0  0  0  0  0  0  0  0  0  0  0
   38.0030   23.6250   32.8260 C   0  0  0  0  0  0  0  0  0  0  0  0
   37.1190   23.7270   31.7820 C   0  0  0  0  0  0  0  0  0  0  0  0
   36.6050   24.9610   31.9060 N   0  0  0  0  0  0  0  0  0  0  0  0
   37.1660   25.5580   32.9830 C   0  0  0  0  0  0  0  0  0  0  0  0
   38.6000   22.7600   33.0360 H   0  0  0  0  0  0  0  0  0  0  0  0
   36.9340   22.9420   31.0600 H   0  0  0  0  0  0  0  0  0  0  0  0
   36.7180   26.9220   33.2710 C   0  0  0  0  0  0  0  0  0  0  0  0
   36.2800   27.5810   32.1180 C   0  0  0  0  0  0  0  0  0  0  0  0
   35.8150   28.8780   32.1710 C   0  0  0  0  0  0  0  0  0  0  0  0
   35.4690   29.4160   31.2910 H   0  0  0  0  0  0  0  0  0  0  0  0
   35.8010   29.4960   33.4100 C   0  0  0  0  0  0  0  0  0  0  0  0
   36.2280   28.8660   34.5610 C   0  0  0  0  0  0  0  0  0  0  0  0
   36.2310   29.3170   35.5460 H   0  0  0  0  0  0  0  0  0  0  0  0
   36.6970   27.5510   34.4990 C   0  0  0  0  0  0  0  0  0  0  0  0
   38.6240   24.1630   35.8840 C   0  0  1  0  0  0  0  0  0  0  0  0
   37.9150   23.3730   35.5630 H   0  0  0  0  0  0  0  0  0  0  0  0
   41.1650   21.8560   37.4760 C   0  0  0  0  0  0  0  0  0  0  0  0
   39.9210   22.4380   37.2230 C   0  0  0  0  0  0  0  0  0  0  0  0
   39.8940   23.4590   36.2220 C   0  0  0  0  0  0  0  0  0  0  0  0
   41.0620   23.8030   35.5800 N   0  0  0  0  0  0  0  0  0  0  0  0
   42.2210   23.2170   35.8590 C   0  0  0  0  0  0  0  0  0  0  0  0
   42.2730   22.2270   36.8230 N   0  0  0  0  0  0  0  0  0  0  0  0
   41.2090   21.0810   38.2310 H   0  0  0  0  0  0  0  0  0  0  0  0
   39.0140   22.1810   37.7120 H   0  0  0  0  0  0  0  0  0  0  0  0
   43.1050   23.5300   35.3210 H   0  0  0  0  0  0  0  0  0  0  0  0
   38.0470   24.8510   37.0950 C   0  0  0  0  0  0  0  0  0  0  0  0
   37.0350   25.2140   36.8260 H   0  0  0  0  0  0  0  0  0  0  0  0
   38.6800   25.6530   37.4790 H   0  0  0  0  0  0  0  0  0  0  0  0
   37.9200   24.0630   37.8930 H   0  0  0  0  0  0  0  0  0  0  0  0
  1  2  1  0  0  0  0
  1 19  1  0  0  0  0
  3  1  1  0  0  0  0
  4  1  1  0  0  0  0
  5  9  1  0  0  0  0
  5  4  1  0  0  0  0
  6  7  1  0  0  0  0
  6  5  2  0  0  0  0
  7  8  2  0  0  0  0
  8 11  1  0  0  0  0
  8  4  1  0  0  0  0
 10  6  1  0  0  0  0
 11 18  1  0  0  0  0
 12 13  1  0  0  0  0
 12 11  2  0  0  0  0
 13 15  2  0  0  0  0
 14 13  1  0  0  0  0
 15 16  1  0  0  0  0
 16 17  1  0  0  0  0
 18 16  2  0  0  0  0
 19 20  1  6  0  0  0
 19 23  1  0  0  0  0
 19 30  1  0  0  0  0
 21 27  1  0  0  0  0
 22 21  1  0  0  0  0
 22 28  1  0  0  0  0
 23 22  2  0  0  0  0
 24 25  2  0  0  0  0
 24 23  1  0  0  0  0
 25 26  1  0  0  0  0
 26 21  2  0  0  0  0
 29 25  1  0  0  0  0
 30 32  1  0  0  0  0
 30 33  1  0  0  0  0
 31 30  1  0  0  0  0
M  END
>  <minimizedAffinity>
-4.69084787

>  <minimizedRMSD>
2.63703442

$$$$
