REMARK  Name = 
REMARK  3 active torsions:
REMARK  status: ('A' for Active; 'I' for Inactive)
REMARK    1  A    between atoms: C_1  and  C_6
REMARK    2  A    between atoms: N_5  and  C_12
REMARK    3  A    between atoms: C_14  and  C_24
REMARK                            x       y       z     vdW  Elec       q    Type
REMARK                         _______ _______ _______ _____ _____    ______ ____
ROOT
ATOM      1  C   UNL     1      38.029  23.474  34.621  0.00  0.00    +0.000 A 
ATOM      2  C   UNL     1      38.261  24.564  33.800  0.00  0.00    +0.000 A 
ATOM      3  N   UNL     1      37.764  24.173  32.584  0.00  0.00    +0.000 NA
ATOM      4  C   UNL     1      37.288  22.947  32.717  0.00  0.00    +0.000 A 
ATOM      5  N   UNL     1      37.435  22.481  33.969  0.00  0.00    +0.000 N 
ATOM      6  H   UNL     1      38.719  25.522  34.011  0.00  0.00    +0.000 HD
ATOM      7  H   UNL     1      36.845  22.445  31.865  0.00  0.00    +0.000 HD
ENDROOT
BRANCH   1   8
ATOM      8  C   UNL     1      38.386  23.405  36.035  0.00  0.00    +0.000 A 
ATOM      9  C   UNL     1      39.600  22.806  36.421  0.00  0.00    +0.000 A 
ATOM     10  C   UNL     1      39.901  22.763  37.798  0.00  0.00    +0.000 A 
ATOM     11  N   UNL     1      39.010  23.297  38.654  0.00  0.00    +0.000 NA
ATOM     12  C   UNL     1      37.856  23.863  38.252  0.00  0.00    +0.000 A 
ATOM     13  N   UNL     1      37.537  23.921  36.944  0.00  0.00    +0.000 NA
ATOM     14  H   UNL     1      40.275  22.393  35.669  0.00  0.00    +0.000 HD
ATOM     15  H   UNL     1      40.836  22.302  38.088  0.00  0.00    +0.000 HD
ATOM     16  H   UNL     1      37.200  24.267  39.015  0.00  0.00    +0.000 HD
ENDBRANCH   1   8
BRANCH   5  17
ATOM     17  C   UNL     1      37.000  21.170  34.385  0.00  0.00    +0.000 C 
ATOM     18  C   UNL     1      35.839  20.966  35.257  0.00  0.00    +0.000 C 
ATOM     19  C   UNL     1      35.667  20.776  33.768  0.00  0.00    +0.000 C 
ATOM     20  H   UNL     1      37.773  20.403  34.320  0.00  0.00    +0.000 HD
ATOM     21  H   UNL     1      35.321  21.839  35.693  0.00  0.00    +0.000 HD
ATOM     22  H   UNL     1      35.888  20.089  35.929  0.00  0.00    +0.000 HD
ATOM     23  H   UNL     1      35.090  21.512  33.191  0.00  0.00    +0.000 HD
BRANCH  19  24
ATOM     24  C   UNL     1      35.438  19.371  33.382  0.00  0.00    +0.000 A 
ATOM     25  C   UNL     1      34.250  18.900  32.869  0.00  0.00    +0.000 A 
ATOM     26  C   UNL     1      34.058  17.585  32.515  0.00  0.00    +0.000 A 
ATOM     27  H   UNL     1      33.106  17.220  32.107  0.00  0.00    +0.000 HD
ATOM     28  C   UNL     1      35.070  16.662  32.662  0.00  0.00    +0.000 A 
ATOM     29  C   UNL     1      36.266  17.086  33.167  0.00  0.00    +0.000 A 
ATOM     30  H   UNL     1      37.102  16.384  33.302  0.00  0.00    +0.000 HD
ATOM     31  C   UNL     1      36.421  18.410  33.511  0.00  0.00    +0.000 A 
ENDBRANCH  19  24
ENDBRANCH   5  17
TORSDOF 3
