
 OpenBabel03262519533D

 33 35  0  0  1  0  0  0  0  0999 V2000
   41.7920   23.1920   35.0330 C   0  0  0  0  0  0  0  0  0  0  0  0
   41.4120   22.5720   35.8970 H   0  0  0  0  0  0  0  0  0  0  0  0
   42.2660   22.4480   34.3650 H   0  0  0  0  0  0  0  0  0  0  0  0
   42.8180   24.1450   35.6670 C   0  0  2  0  0  0  0  0  0  0  0  0
   43.6190   24.9310   34.6800 C   0  0  0  0  0  0  0  0  0  0  0  0
   44.2340   23.9450   35.6280 C   0  0  1  0  0  0  0  0  0  0  0  0
   42.3450   24.7330   36.4560 H   0  0  0  0  0  0  0  0  0  0  0  0
   43.8060   26.0210   34.9280 H   0  0  0  0  0  0  0  0  0  0  0  0
   43.4010   24.7970   33.6450 H   0  0  0  0  0  0  0  0  0  0  0  0
   44.9460   23.3770   35.1680 H   0  0  0  0  0  0  0  0  0  0  0  0
   44.9510   24.5510   36.8300 C   0  0  0  0  0  0  0  0  0  0  0  0
   44.2750   25.4000   37.6790 C   0  0  0  0  0  0  0  0  0  0  0  0
   44.8330   25.9850   38.7930 C   0  0  0  0  0  0  0  0  0  0  0  0
   44.2850   26.6510   39.4490 H   0  0  0  0  0  0  0  0  0  0  0  0
   46.1510   25.7070   39.0830 C   0  0  0  0  0  0  0  0  0  0  0  0
   46.8760   24.8650   38.2690 C   0  0  0  0  0  0  0  0  0  0  0  0
   47.9290   24.5930   38.4290 H   0  0  0  0  0  0  0  0  0  0  0  0
   46.2740   24.3160   37.1810 C   0  0  0  0  0  0  0  0  0  0  0  0
   40.6920   23.9850   34.5200 C   0  0  0  0  0  0  0  0  0  0  0  0
   40.2810   23.3110   33.6750 H   0  0  0  0  0  0  0  0  0  0  0  0
   41.0470   24.7920   33.9390 H   0  0  0  0  0  0  0  0  0  0  0  0
   37.9190   25.1780   36.4470 C   0  0  0  0  0  0  0  0  0  0  0  0
   39.0470   25.2610   35.5840 C   0  0  0  0  0  0  0  0  0  0  0  0
   39.5800   24.0500   35.3880 C   0  0  0  0  0  0  0  0  0  0  0  0
   39.0640   22.8960   35.9750 N   0  0  0  0  0  0  0  0  0  0  0  0
   38.0140   22.8980   36.7650 C   0  0  0  0  0  0  0  0  0  0  0  0
   37.4350   24.0550   37.0040 N   0  0  0  0  0  0  0  0  0  0  0  0
   37.3340   26.0710   36.7360 H   0  0  0  0  0  0  0  0  0  0  0  0
   37.6990   21.9660   37.1620 H   0  0  0  0  0  0  0  0  0  0  0  0
   39.3580   26.5650   35.1160 C   0  0  0  0  0  0  0  0  0  0  0  0
   40.7360   26.8660   35.2630 F   0  0  0  0  0  0  0  0  0  0  0  0
   39.0380   27.6690   35.8190 F   0  0  0  0  0  0  0  0  0  0  0  0
   39.4240   26.7840   33.7460 F   0  0  0  0  0  0  0  0  0  0  0  0
  1  4  1  0  0  0  0
  1  2  1  0  0  0  0
  3  1  1  0  0  0  0
  4  7  1  1  0  0  0
  5  8  1  0  0  0  0
  5  6  1  0  0  0  0
  5  4  1  0  0  0  0
  6 10  1  6  0  0  0
  6  4  1  0  0  0  0
  6 11  1  0  0  0  0
  9  5  1  0  0  0  0
 11 18  2  0  0  0  0
 11 12  1  0  0  0  0
 12 13  2  0  0  0  0
 13 15  1  0  0  0  0
 13 14  1  0  0  0  0
 16 17  1  0  0  0  0
 16 15  2  0  0  0  0
 18 16  1  0  0  0  0
 19  1  1  0  0  0  0
 19 24  1  0  0  0  0
 20 19  1  0  0  0  0
 21 19  1  0  0  0  0
 22 28  1  0  0  0  0
 22 27  1  0  0  0  0
 23 22  2  0  0  0  0
 24 23  1  0  0  0  0
 24 25  2  0  0  0  0
 25 26  1  0  0  0  0
 26 27  2  0  0  0  0
 26 29  1  0  0  0  0
 30 31  1  0  0  0  0
 30 23  1  0  0  0  0
 30 32  1  0  0  0  0
 33 30  1  0  0  0  0
M  END
>  <minimizedAffinity>
-5.54510212

>  <minimizedRMSD>
7.55311966

$$$$
