
     RDKit          3D

 34 37  0  0  0  0  0  0  0  0999 V2000
   38.0287   23.4738   34.6209 C   0  0  0  0  0  0  0  0  0  0  0  0
   38.2606   24.5640   33.8002 C   0  0  0  0  0  0  0  0  0  0  0  0
   37.7645   24.1731   32.5836 N   0  0  0  0  0  0  0  0  0  0  0  0
   37.2877   22.9471   32.7165 C   0  0  0  0  0  0  0  0  0  0  0  0
   37.4350   22.4810   33.9691 N   0  0  0  0  0  0  0  0  0  0  0  0
   38.3863   23.4047   36.0350 C   0  0  0  0  0  0  0  0  0  0  0  0
   39.6004   22.8060   36.4206 C   0  0  0  0  0  0  0  0  0  0  0  0
   39.9015   22.7633   37.7985 C   0  0  0  0  0  0  0  0  0  0  0  0
   39.0104   23.2967   38.6537 N   0  0  0  0  0  0  0  0  0  0  0  0
   37.8565   23.8629   38.2516 C   0  0  0  0  0  0  0  0  0  0  0  0
   37.5373   23.9208   36.9445 N   0  0  0  0  0  0  0  0  0  0  0  0
   37.0001   21.1703   34.3848 C   0  0  1  0  0  0  0  0  0  0  0  0
   35.8390   20.9659   35.2570 C   0  0  0  0  0  0  0  0  0  0  0  0
   35.6669   20.7757   33.7680 C   0  0  2  0  0  0  0  0  0  0  0  0
   38.7190   25.5217   34.0107 H   0  0  0  0  0  0  0  0  0  0  0  0
   36.8446   22.4446   31.8646 H   0  0  0  0  0  0  0  0  0  0  0  0
   40.2754   22.3934   35.6694 H   0  0  0  0  0  0  0  0  0  0  0  0
   40.8359   22.3019   38.0884 H   0  0  0  0  0  0  0  0  0  0  0  0
   37.2005   24.2666   39.0154 H   0  0  0  0  0  0  0  0  0  0  0  0
   37.7729   20.4028   34.3197 H   0  0  0  0  0  0  0  0  0  0  0  0
   35.3208   21.8394   35.6930 H   0  0  0  0  0  0  0  0  0  0  0  0
   35.8880   20.0888   35.9287 H   0  0  0  0  0  0  0  0  0  0  0  0
   35.0902   21.5118   33.1915 H   0  0  0  0  0  0  0  0  0  0  0  0
   35.4377   19.3714   33.3817 C   0  0  0  0  0  0  0  0  0  0  0  0
   34.2107   18.7498   33.4397 C   0  0  0  0  0  0  0  0  0  0  0  0
   34.0194   17.4378   33.0741 C   0  0  0  0  0  0  0  0  0  0  0  0
   33.0358   16.9511   33.1242 H   0  0  0  0  0  0  0  0  0  0  0  0
   35.0727   16.6716   32.6237 C   0  0  0  0  0  0  0  0  0  0  0  0
   36.3087   17.2489   32.5501 C   0  0  0  0  0  0  0  0  0  0  0  0
   37.1778   16.6754   32.1965 H   0  0  0  0  0  0  0  0  0  0  0  0
   36.4615   18.5651   32.9248 C   0  0  0  0  0  0  0  0  0  0  0  0
   33.3520   19.3072   33.7863 H   0  0  0  0  0  0  0  0  0  0  0  0
   34.9268   15.6486   32.3379 H   0  0  0  0  0  0  0  0  0  0  0  0
   37.4784   18.9753   32.8444 H   0  0  0  0  0  0  0  0  0  0  0  0
  1  6  1  0
  2  1  2  0
  3  4  2  0
  3  2  1  0
  4  5  1  0
  5 12  1  0
  5  1  1  0
  6  7  2  0
  6 11  1  0
  7  8  1  0
  8  9  2  0
 10  9  1  0
 11 10  2  0
 12 13  1  0
 14 12  1  0
 14 13  1  0
  2 15  1  0
  4 16  1  0
  7 17  1  0
  8 18  1  0
 10 19  1  0
 12 20  1  1
 13 21  1  0
 13 22  1  0
 14 23  1  6
 24 25  2  0
 25 26  1  0
 26 27  1  0
 26 28  2  0
 28 29  1  0
 29 30  1  0
 29 31  2  0
 31 24  1  0
 25 32  1  0
 28 33  1  0
 31 34  1  0
 14 24  1  0
M  ISO  8  15  14  16  14  17  14  18  14  19  14  20  13  21  13  22  13
M  ISO  3  23  13  27  16  30  16
M  END
>  <DihAtoms>  (1) 
11,13,23,24

>  <DihDeg>  (1) 
27.178303932675174

$$$$
