
 OpenBabel03262520003D

 34 37  0  0  1  0  0  0  0  0999 V2000
   37.6380   23.3880   34.8810 C   0  0  1  0  0  0  0  0  0  0  0  0
   37.9790   22.9850   36.2180 C   0  0  0  0  0  0  0  0  0  0  0  0
   38.7180   24.1760   35.5420 C   0  0  1  0  0  0  0  0  0  0  0  0
   36.6250   23.9030   34.7770 H   0  0  0  0  0  0  0  0  0  0  0  0
   37.3690   23.2420   37.0940 H   0  0  0  0  0  0  0  0  0  0  0  0
   38.6050   22.0960   36.3910 H   0  0  0  0  0  0  0  0  0  0  0  0
   40.1890   23.8480   35.6020 C   0  0  0  0  0  0  0  0  0  0  0  0
   40.5310   23.0790   36.7180 C   0  0  0  0  0  3  0  0  0  0  0  0
   41.8460   22.7070   36.8940 C   0  0  0  0  0  0  0  0  0  0  0  0
   42.2440   22.1070   37.7250 H   0  0  0  0  0  0  0  0  0  0  0  0
   42.8310   23.0750   35.9980 C   0  0  0  0  0  3  0  0  0  0  0  0
   42.4720   23.8290   34.9100 C   0  0  0  0  0  0  0  0  0  0  0  0
   43.2010   24.1480   34.1700 H   0  0  0  0  0  0  0  0  0  0  0  0
   41.1780   24.2110   34.7120 C   0  0  0  0  0  3  0  0  0  0  0  0
   37.7880   23.0290   32.4110 C   0  0  0  0  0  0  0  0  0  0  0  0
   38.3580   22.0860   31.5590 C   0  0  0  0  0  0  0  0  0  0  0  0
   38.9510   21.1980   32.4130 N   0  0  0  0  0  0  0  0  0  0  0  0
   38.7260   21.6180   33.6550 C   0  0  0  0  0  0  0  0  0  0  0  0
   38.0140   22.7400   33.6810 N   0  0  0  0  0  0  0  0  0  0  0  0
   38.3210   22.0840   30.4650 H   0  0  0  0  0  0  0  0  0  0  0  0
   39.1570   20.9830   34.4430 H   0  0  0  0  0  0  0  0  0  0  0  0
   37.0420   24.1980   31.9610 C   0  0  0  0  0  0  0  0  0  0  0  0
   37.6460   25.4720   32.0270 C   0  0  0  0  0  0  0  0  0  0  0  0
   36.8930   26.5790   31.5800 C   0  0  0  0  0  0  0  0  0  0  0  0
   35.6360   26.3370   31.1190 N   0  0  0  0  0  0  0  0  0  0  0  0
   35.0950   25.1010   31.0730 C   0  0  0  0  0  0  0  0  0  0  0  0
   35.7920   24.0280   31.4920 N   0  0  0  0  0  0  0  0  0  0  0  0
   38.6520   25.5450   32.4130 H   0  0  0  0  0  0  0  0  0  0  0  0
   37.3440   27.5510   31.6270 H   0  0  0  0  0  0  0  0  0  0  0  0
   34.0920   25.0740   30.6810 H   0  0  0  0  0  0  0  0  0  0  0  0
   38.3160   25.4910   36.1830 C   0  0  0  0  0  0  0  0  0  0  0  0
   39.2080   26.4790   35.8150 F   0  0  0  0  0  0  0  0  0  0  0  0
   37.0610   25.9200   35.5870 F   0  0  0  0  0  0  0  0  0  0  0  0
   38.1010   25.4140   37.5040 F   0  0  0  0  0  0  0  0  0  0  0  0
  1  4  1  6  0  0  0
  1  3  1  0  0  0  0
  1  2  1  0  0  0  0
  2  6  1  0  0  0  0
  2  5  1  0  0  0  0
  3  7  1  0  0  0  0
  3 31  1  1  0  0  0
  3  2  1  0  0  0  0
  7  8  1  0  0  0  0
  8  9  2  0  0  0  0
  9 10  1  0  0  0  0
 11  9  1  0  0  0  0
 12 11  2  0  0  0  0
 13 12  1  0  0  0  0
 14 12  1  0  0  0  0
 14  7  2  0  0  0  0
 15 19  1  0  0  0  0
 16 15  2  0  0  0  0
 16 17  1  0  0  0  0
 17 18  2  0  0  0  0
 18 19  1  0  0  0  0
 18 21  1  0  0  0  0
 19  1  1  0  0  0  0
 20 16  1  0  0  0  0
 22 23  1  0  0  0  0
 22 15  1  0  0  0  0
 23 28  1  0  0  0  0
 24 29  1  0  0  0  0
 24 23  2  0  0  0  0
 25 24  1  0  0  0  0
 26 25  2  0  0  0  0
 26 27  1  0  0  0  0
 27 22  2  0  0  0  0
 30 26  1  0  0  0  0
 31 34  1  0  0  0  0
 32 31  1  0  0  0  0
 33 31  1  0  0  0  0
M  END
>  <minimizedAffinity>
-5.13792992

>  <minimizedRMSD>
4.32780123

$$$$
