
 OpenBabel03262519583D

 31 34  0  0  1  0  0  0  0  0999 V2000
   38.1630   23.9930   34.6960 C   0  0  0  0  0  0  0  0  0  0  0  0
   38.3020   25.2240   34.0790 C   0  0  0  0  0  0  0  0  0  0  0  0
   37.9200   24.9890   32.7830 N   0  0  0  0  0  0  0  0  0  0  0  0
   37.5920   23.7120   32.6840 C   0  0  0  0  0  0  0  0  0  0  0  0
   37.7300   23.0630   33.8530 N   0  0  0  0  0  0  0  0  0  0  0  0
   38.6280   26.1780   34.4720 H   0  0  0  0  0  0  0  0  0  0  0  0
   37.2580   23.3130   31.7330 H   0  0  0  0  0  0  0  0  0  0  0  0
   38.4520   23.7290   36.1020 C   0  0  0  0  0  0  0  0  0  0  0  0
   39.6570   23.0950   36.4610 C   0  0  0  0  0  0  0  0  0  0  0  0
   39.8920   22.8610   37.8320 C   0  0  0  0  0  0  0  0  0  0  0  0
   38.9500   23.2580   38.7080 N   0  0  0  0  0  0  0  0  0  0  0  0
   37.8070   23.8620   38.3320 C   0  0  0  0  0  0  0  0  0  0  0  0
   37.5510   24.1010   37.0310 N   0  0  0  0  0  0  0  0  0  0  0  0
   40.3750   22.8010   35.6940 H   0  0  0  0  0  0  0  0  0  0  0  0
   40.8200   22.3750   38.1010 H   0  0  0  0  0  0  0  0  0  0  0  0
   37.1070   24.1460   39.1100 H   0  0  0  0  0  0  0  0  0  0  0  0
   37.4370   21.6600   34.0210 C   0  0  1  0  0  0  0  0  0  0  0  0
   36.2210   21.1840   34.6870 C   0  0  0  0  0  0  0  0  0  0  0  0
   36.2570   21.2060   33.1770 C   0  0  2  0  0  0  0  0  0  0  0  0
   38.3130   21.0120   33.9610 H   0  0  0  0  0  0  0  0  0  0  0  0
   35.5360   21.9100   35.1620 H   0  0  0  0  0  0  0  0  0  0  0  0
   36.3120   20.2270   35.2340 H   0  0  0  0  0  0  0  0  0  0  0  0
   35.6550   21.9460   32.6310 H   0  0  0  0  0  0  0  0  0  0  0  0
   36.2770   19.8590   32.5750 C   0  0  0  0  0  0  0  0  0  0  0  0
   37.1480   19.4760   31.5810 C   0  0  0  0  0  3  0  0  0  0  0  0
   37.1500   18.2150   31.0330 C   0  0  0  0  0  0  0  0  0  0  0  0
   37.8500   17.9190   30.2410 H   0  0  0  0  0  0  0  0  0  0  0  0
   36.2560   17.2590   31.4650 C   0  0  0  0  0  3  0  0  0  0  0  0
   35.3710   17.5960   32.4510 C   0  0  0  0  0  0  0  0  0  0  0  0
   34.6410   16.8660   32.8270 H   0  0  0  0  0  0  0  0  0  0  0  0
   35.4010   18.8700   32.9750 C   0  0  0  0  0  3  0  0  0  0  0  0
  1  8  1  0  0  0  0
  2  6  1  0  0  0  0
  2  1  2  0  0  0  0
  3  2  1  0  0  0  0
  4  3  2  0  0  0  0
  4  5  1  0  0  0  0
  5 17  1  0  0  0  0
  5  1  1  0  0  0  0
  7  4  1  0  0  0  0
  8  9  2  0  0  0  0
  8 13  1  0  0  0  0
  9 10  1  0  0  0  0
 10 15  1  0  0  0  0
 10 11  2  0  0  0  0
 12 11  1  0  0  0  0
 12 16  1  0  0  0  0
 13 12  2  0  0  0  0
 14  9  1  0  0  0  0
 17 20  1  1  0  0  0
 17 18  1  0  0  0  0
 18 21  1  0  0  0  0
 18 22  1  0  0  0  0
 19 23  1  6  0  0  0
 19 17  1  0  0  0  0
 19 18  1  0  0  0  0
 24 31  1  0  0  0  0
 24 19  1  0  0  0  0
 25 24  2  0  0  0  0
 26 28  2  0  0  0  0
 26 25  1  0  0  0  0
 27 26  1  0  0  0  0
 28 29  1  0  0  0  0
 29 30  1  0  0  0  0
 29 31  2  0  0  0  0
M  END
>  <minimizedAffinity>
-5.12378597

>  <minimizedRMSD>
1.01873374

$$$$
