
 OpenBabel03262517433D

 42 45  0  0  0  0  0  0  0  0999 V2000
   40.3920   22.1080   34.1140 C   0  0  0  0  0  0  0  0  0  0  0  0
   39.0810   22.0460   33.6660 C   0  0  0  0  0  0  0  0  0  0  0  0
   38.7500   21.1180   32.6950 C   0  0  0  0  0  0  0  0  0  0  0  0
   39.7310   20.2970   32.2190 N   0  0  0  0  0  0  0  0  0  0  0  0
   40.9830   20.3860   32.6760 C   0  0  0  0  0  0  0  0  0  0  0  0
   41.3210   21.2720   33.6090 N   0  0  0  0  0  0  0  0  0  0  0  0
   37.4790   20.9020   32.1130 N   0  0  0  0  0  0  0  0  0  0  0  0
   36.9740   21.5540   30.9330 C   0  0  0  0  0  0  0  0  0  0  0  0
   35.7290   22.3190   31.2680 C   0  0  0  0  0  0  0  0  0  0  0  0
   35.2510   21.9450   32.5500 O   0  0  0  0  0  0  0  0  0  0  0  0
   35.1010   20.5750   32.5940 C   0  0  0  0  0  0  0  0  0  0  0  0
   36.4850   19.9580   32.6480 C   0  0  0  0  0  0  0  0  0  0  0  0
   38.2710   22.6480   33.9870 H   0  0  0  0  0  0  0  0  0  0  0  0
   41.7650   19.7200   32.2850 H   0  0  0  0  0  0  0  0  0  0  0  0
   36.7190   20.7760   30.2030 H   0  0  0  0  0  0  0  0  0  0  0  0
   37.7260   22.2760   30.5200 H   0  0  0  0  0  0  0  0  0  0  0  0
   34.9330   22.1950   30.5020 H   0  0  0  0  0  0  0  0  0  0  0  0
   35.9090   23.4100   31.3510 H   0  0  0  0  0  0  0  0  0  0  0  0
   34.4590   20.2700   33.4400 H   0  0  0  0  0  0  0  0  0  0  0  0
   34.5640   20.2710   31.6610 H   0  0  0  0  0  0  0  0  0  0  0  0
   36.7990   19.7890   33.7070 H   0  0  0  0  0  0  0  0  0  0  0  0
   36.4970   19.0400   32.0480 H   0  0  0  0  0  0  0  0  0  0  0  0
   40.6940   23.0820   35.1200 C   0  0  0  0  0  0  0  0  0  0  0  0
   41.8110   23.7060   35.2100 O   0  0  0  0  0  0  0  0  0  0  0  0
   39.7690   23.4850   36.1650 C   0  0  0  0  0  0  0  0  0  0  0  0
   39.6890   22.7890   37.3650 C   0  0  0  0  0  0  0  0  0  0  0  0
   38.7820   23.1910   38.3430 C   0  0  0  0  0  0  0  0  0  0  0  0
   37.9550   24.2730   38.1460 C   0  0  0  0  0  0  0  0  0  0  0  0
   38.0310   24.9740   36.9500 C   0  0  0  0  0  0  0  0  0  0  0  0
   38.9480   24.5610   35.9750 C   0  0  0  0  0  0  0  0  0  0  0  0
   40.3700   21.9490   37.4480 H   0  0  0  0  0  0  0  0  0  0  0  0
   38.8430   22.5490   39.2120 H   0  0  0  0  0  0  0  0  0  0  0  0
   37.3020   24.4800   38.9740 H   0  0  0  0  0  0  0  0  0  0  0  0
   37.3470   25.8060   36.8830 H   0  0  0  0  0  0  0  0  0  0  0  0
   38.8860   25.4540   34.8240 C   0  0  0  0  0  0  0  0  0  0  0  0
   37.7700   25.3700   33.9820 C   0  0  0  0  0  0  0  0  0  0  0  0
   37.5280   26.1410   32.8650 C   0  0  0  0  0  0  0  0  0  0  0  0
   36.6230   25.9790   32.2950 H   0  0  0  0  0  0  0  0  0  0  0  0
   38.4780   27.0870   32.5430 C   0  0  0  0  0  0  0  0  0  0  0  0
   39.5960   27.2080   33.3410 C   0  0  0  0  0  0  0  0  0  0  0  0
   40.3530   27.9570   33.0900 H   0  0  0  0  0  0  0  0  0  0  0  0
   39.8080   26.4330   34.4380 C   0  0  0  0  0  0  0  0  0  0  0  0
  1 23  1  0  0  0  0
  2 13  1  0  0  0  0
  2  1  1  0  0  0  0
  3  2  2  0  0  0  0
  4  5  2  0  0  0  0
  4  3  1  0  0  0  0
  5  6  1  0  0  0  0
  6  1  2  0  0  0  0
  7 12  1  0  0  0  0
  7  3  1  0  0  0  0
  8  9  1  0  0  0  0
  8  7  1  0  0  0  0
  9 18  1  0  0  0  0
  9 10  1  0  0  0  0
 10 11  1  0  0  0  0
 11 12  1  0  0  0  0
 11 19  1  0  0  0  0
 12 21  1  0  0  0  0
 14  5  1  0  0  0  0
 15  8  1  0  0  0  0
 16  8  1  0  0  0  0
 17  9  1  0  0  0  0
 20 11  1  0  0  0  0
 22 12  1  0  0  0  0
 23 24  2  0  0  0  0
 23 25  1  0  0  0  0
 25 26  1  0  0  0  0
 26 31  1  0  0  0  0
 26 27  2  0  0  0  0
 27 32  1  0  0  0  0
 28 27  1  0  0  0  0
 28 33  1  0  0  0  0
 29 28  2  0  0  0  0
 30 25  2  0  0  0  0
 30 29  1  0  0  0  0
 34 29  1  0  0  0  0
 35 30  1  0  0  0  0
 36 35  2  0  0  0  0
 37 36  1  0  0  0  0
 38 37  1  0  0  0  0
 39 37  2  0  0  0  0
 39 40  1  0  0  0  0
 40 42  2  0  0  0  0
 41 40  1  0  0  0  0
 42 35  1  0  0  0  0
M  END
>  <minimizedAffinity>
-5.96780348

>  <minimizedRMSD>
2.64654803

$$$$
