
 OpenBabel03262516163D

 34 37  0  0  0  0  0  0  0  0999 V2000
   44.4740   24.0730   36.0290 C   0  0  0  0  0  0  0  0  0  0  0  0
   43.9150   24.8270   35.3980 H   0  0  0  0  0  0  0  0  0  0  0  0
   45.2800   23.6720   35.4330 H   0  0  0  0  0  0  0  0  0  0  0  0
   41.2030   22.4280   37.0060 C   0  0  0  0  0  0  0  0  0  0  0  0
   42.1340   23.3970   36.6760 C   0  0  0  0  0  0  0  0  0  0  0  0
   43.4530   23.0330   36.3890 C   0  0  0  0  0  0  0  0  0  0  0  0
   43.7550   21.6990   36.4550 N   0  0  0  0  0  0  0  0  0  0  0  0
   42.8340   20.7640   36.7800 C   0  0  0  0  0  0  0  0  0  0  0  0
   41.5760   21.1610   37.0470 N   0  0  0  0  0  0  0  0  0  0  0  0
   41.9330   24.4520   36.6150 H   0  0  0  0  0  0  0  0  0  0  0  0
   43.1190   19.7190   36.8200 H   0  0  0  0  0  0  0  0  0  0  0  0
   39.8390   22.8500   37.2960 C   0  0  0  0  0  0  0  0  0  0  0  0
   38.8350   22.9860   36.3580 C   0  0  0  0  0  0  0  0  0  0  0  0
   37.7450   23.3970   37.0750 C   0  0  0  0  0  0  0  0  0  0  0  0
   38.1130   23.4980   38.4060 C   0  0  0  0  0  0  0  0  0  0  0  0
   39.3900   23.1560   38.4860 O   0  0  0  0  0  0  0  0  0  0  0  0
   38.9280   22.7950   35.2830 H   0  0  0  0  0  0  0  0  0  0  0  0
   36.7580   23.6080   36.6670 H   0  0  0  0  0  0  0  0  0  0  0  0
   37.4190   23.8080   39.1770 H   0  0  0  0  0  0  0  0  0  0  0  0
   44.9210   24.8080   37.1810 N   0  0  0  0  0  0  0  0  0  0  0  0
   44.3300   25.7300   37.9130 N   0  0  0  0  0  0  0  0  0  0  0  0
   45.0680   26.1720   38.9110 C   0  0  0  0  0  0  0  0  0  0  0  0
   46.2760   25.4850   38.8500 C   0  0  0  0  0  0  0  0  0  0  0  0
   46.1360   24.6370   37.7430 C   0  0  0  0  0  0  0  0  0  0  0  0
   44.7650   26.9250   39.6220 H   0  0  0  0  0  0  0  0  0  0  0  0
   47.0560   25.6720   39.5690 H   0  0  0  0  0  0  0  0  0  0  0  0
   47.2960   23.7890   37.4750 C   0  0  0  0  0  0  0  0  0  0  0  0
   47.3920   22.7700   36.5520 C   0  0  0  0  0  0  0  0  0  0  0  0
   48.5320   22.0180   36.3880 C   0  0  0  0  0  0  0  0  0  0  0  0
   48.5360   21.2280   35.6380 H   0  0  0  0  0  0  0  0  0  0  0  0
   49.6540   22.2540   37.1530 C   0  0  0  0  0  0  0  0  0  0  0  0
   49.6480   23.2540   38.1020 C   0  0  0  0  0  0  0  0  0  0  0  0
   50.4720   23.5190   38.7520 H   0  0  0  0  0  0  0  0  0  0  0  0
   48.4750   23.9670   38.2130 C   0  0  0  0  0  0  0  0  0  0  0  0
  1  6  1  0  0  0  0
  1 20  1  0  0  0  0
  2  1  1  0  0  0  0
  3  1  1  0  0  0  0
  4  9  1  0  0  0  0
  4 12  1  0  0  0  0
  5  4  2  0  0  0  0
  6  7  2  0  0  0  0
  6  5  1  0  0  0  0
  7  8  1  0  0  0  0
  8 11  1  0  0  0  0
  8  9  2  0  0  0  0
 10  5  1  0  0  0  0
 12 16  1  0  0  0  0
 13 14  1  0  0  0  0
 13 12  2  0  0  0  0
 14 15  2  0  0  0  0
 15 16  1  0  0  0  0
 15 19  1  0  0  0  0
 17 13  1  0  0  0  0
 18 14  1  0  0  0  0
 20 24  1  0  0  0  0
 20 21  1  0  0  0  0
 21 22  2  0  0  0  0
 22 25  1  0  0  0  0
 23 22  1  0  0  0  0
 23 26  1  0  0  0  0
 24 23  2  0  0  0  0
 27 24  1  0  0  0  0
 27 34  1  0  0  0  0
 28 27  2  0  0  0  0
 29 28  1  0  0  0  0
 29 31  2  0  0  0  0
 30 29  1  0  0  0  0
 31 32  1  0  0  0  0
 32 34  2  0  0  0  0
 32 33  1  0  0  0  0
M  END
>  <minimizedAffinity>
-5.2834568

>  <minimizedRMSD>
0.800838828

$$$$
