
     RDKit          3D

 43 46  0  0  0  0  0  0  0  0999 V2000
   38.0858   25.7598   35.4177 C   0  0  1  0  0  0  0  0  0  0  0  0
   38.6423   23.3721   38.3018 C   0  0  0  0  0  0  0  0  0  0  0  0
   38.0416   24.4052   37.5635 C   0  0  0  0  0  0  0  0  0  0  0  0
   38.6401   24.7059   36.2899 C   0  0  0  0  0  0  0  0  0  0  0  0
   39.7447   23.9857   35.8651 N   0  0  0  0  0  0  0  0  0  0  0  0
   40.2676   23.0154   36.6148 C   0  0  0  0  0  0  0  0  0  0  0  0
   39.7067   22.7084   37.8468 N   0  0  0  0  0  0  0  0  0  0  0  0
   38.3308   27.1316   36.0346 C   0  0  0  0  0  0  0  0  0  0  0  0
   38.5913   25.7153   34.0242 C   0  0  0  0  0  0  0  0  0  0  0  0
   37.5794   25.4375   33.0713 N   0  0  0  0  0  0  0  0  0  0  0  0
   37.0501   24.3307   32.5501 C   0  0  0  0  0  0  0  0  0  0  0  0
   36.0488   24.5663   31.6394 C   0  0  0  0  0  0  0  0  0  0  0  0
   35.9523   25.8926   31.5934 N   0  0  0  0  0  0  0  0  0  0  0  0
   36.8745   26.4253   32.4557 C   0  0  0  0  0  0  0  0  0  0  0  0
   37.0017   27.9253   32.5802 C   0  0  1  0  0  0  0  0  0  0  0  0
   35.8658   28.7194   32.0616 C   0  0  0  0  0  0  0  0  0  0  0  0
   36.0507   28.5844   33.5569 C   0  0  2  0  0  0  0  0  0  0  0  0
   36.9658   25.6268   35.4247 H   0  0  0  0  0  0  0  0  0  0  0  0
   38.1735   23.1673   39.2532 H   0  0  0  0  0  0  0  0  0  0  0  0
   37.1834   24.9850   37.8624 H   0  0  0  0  0  0  0  0  0  0  0  0
   41.1276   22.4546   36.2841 H   0  0  0  0  0  0  0  0  0  0  0  0
   37.5007   27.4159   36.6892 H   0  0  0  0  0  0  0  0  0  0  0  0
   38.5761   27.8749   35.2592 H   0  0  0  0  0  0  0  0  0  0  0  0
   39.2481   27.0240   36.6728 H   0  0  0  0  0  0  0  0  0  0  0  0
   39.3559   24.8950   33.9330 H   0  0  0  0  0  0  0  0  0  0  0  0
   39.1220   26.6536   33.7686 H   0  0  0  0  0  0  0  0  0  0  0  0
   37.4100   23.3328   32.8479 H   0  0  0  0  0  0  0  0  0  0  0  0
   35.5028   23.7675   31.1131 H   0  0  0  0  0  0  0  0  0  0  0  0
   38.0248   28.3109   32.5412 H   0  0  0  0  0  0  0  0  0  0  0  0
   34.9619   28.1835   31.6623 H   0  0  0  0  0  0  0  0  0  0  0  0
   36.0679   29.6555   31.5348 H   0  0  0  0  0  0  0  0  0  0  0  0
   35.4119   27.9040   34.1167 H   0  0  0  0  0  0  0  0  0  0  0  0
   36.3688   29.8632   34.1825 C   0  0  0  0  0  0  0  0  0  0  0  0
   37.6561   30.3625   34.1793 C   0  0  0  0  0  0  0  0  0  0  0  0
   37.8943   31.5878   34.7929 C   0  0  0  0  0  0  0  0  0  0  0  0
   38.9113   31.9862   34.7925 H   0  0  0  0  0  0  0  0  0  0  0  0
   36.9211   32.3457   35.4109 C   0  0  0  0  0  0  0  0  0  0  0  0
   35.6417   31.8378   35.4077 C   0  0  0  0  0  0  0  0  0  0  0  0
   34.8454   32.4029   35.8836 H   0  0  0  0  0  0  0  0  0  0  0  0
   35.3947   30.6230   34.8017 C   0  0  0  0  0  0  0  0  0  0  0  0
   38.4663   29.8076   33.7060 H   0  0  0  0  0  0  0  0  0  0  0  0
   37.1885   33.2945   35.8684 H   0  0  0  0  0  0  0  0  0  0  0  0
   34.3821   30.2296   34.8039 H   0  0  0  0  0  0  0  0  0  0  0  0
  1  8  1  0
  1  4  1  0
  3  2  2  0
  4  3  1  0
  5  4  2  0
  5  6  1  0
  6  7  2  0
  7  2  1  0
  9  1  1  0
 10  9  1  0
 11 10  1  0
 12 11  2  0
 13 12  1  0
 13 14  2  0
 14 15  1  0
 14 10  1  0
 15 17  1  0
 16 15  1  0
 16 17  1  0
  1 18  1  6
  2 19  1  0
  3 20  1  0
  6 21  1  0
  8 22  1  0
  8 23  1  0
  8 24  1  0
  9 25  1  0
  9 26  1  0
 11 27  1  0
 12 28  1  0
 15 29  1  1
 16 30  1  0
 16 31  1  0
 17 32  1  1
 33 34  2  0
 34 35  1  0
 35 36  1  0
 35 37  2  0
 37 38  1  0
 38 39  1  0
 38 40  2  0
 40 33  1  0
 34 41  1  0
 37 42  1  0
 40 43  1  0
 17 33  1  0
M  ISO  8  18   8  19  14  20  14  21  14  22   8  23   8  24   8  25   8
M  ISO  8  26   8  27  14  28  14  29  13  30  13  31  13  32  13  36  16
M  ISO  1  39  16
M  END
>  <DihAtoms>  (1) 
14,16,32,33

>  <DihDeg>  (1) 
28.80603585148811

$$$$
