REMARK  Name = 
REMARK  6 active torsions:
REMARK  status: ('A' for Active; 'I' for Inactive)
REMARK    1  A    between atoms: C_1  and  C_4
REMARK    2  A    between atoms: C_1  and  C_8
REMARK    3  A    between atoms: C_1  and  C_9
REMARK    4  A    between atoms: C_9  and  N_10
REMARK    5  A    between atoms: C_14  and  C_15
REMARK    6  A    between atoms: C_17  and  C_33
REMARK                            x       y       z     vdW  Elec       q    Type
REMARK                         _______ _______ _______ _____ _____    ______ ____
ROOT
ATOM      1  N   UNL     1      37.579  25.438  33.071  0.00  0.00    +0.000 N 
ATOM      2  C   UNL     1      37.050  24.331  32.550  0.00  0.00    +0.000 A 
ATOM      3  C   UNL     1      36.049  24.566  31.639  0.00  0.00    +0.000 A 
ATOM      4  N   UNL     1      35.952  25.893  31.593  0.00  0.00    +0.000 NA
ATOM      5  C   UNL     1      36.874  26.425  32.456  0.00  0.00    +0.000 A 
ATOM      6  H   UNL     1      37.410  23.333  32.848  0.00  0.00    +0.000 HD
ATOM      7  H   UNL     1      35.503  23.767  31.113  0.00  0.00    +0.000 HD
ENDROOT
BRANCH   5   8
ATOM      8  C   UNL     1      37.002  27.925  32.580  0.00  0.00    +0.000 C 
ATOM      9  C   UNL     1      35.866  28.719  32.062  0.00  0.00    +0.000 C 
ATOM     10  C   UNL     1      36.051  28.584  33.557  0.00  0.00    +0.000 C 
ATOM     11  H   UNL     1      38.025  28.311  32.541  0.00  0.00    +0.000 HD
ATOM     12  H   UNL     1      34.962  28.183  31.662  0.00  0.00    +0.000 HD
ATOM     13  H   UNL     1      36.068  29.655  31.535  0.00  0.00    +0.000 HD
ATOM     14  H   UNL     1      35.412  27.904  34.117  0.00  0.00    +0.000 HD
BRANCH  10  15
ATOM     15  C   UNL     1      36.369  29.863  34.182  0.00  0.00    +0.000 A 
ATOM     16  C   UNL     1      37.656  30.363  34.179  0.00  0.00    +0.000 A 
ATOM     17  C   UNL     1      37.894  31.588  34.793  0.00  0.00    +0.000 A 
ATOM     18  H   UNL     1      38.911  31.986  34.792  0.00  0.00    +0.000 HD
ATOM     19  C   UNL     1      36.921  32.346  35.411  0.00  0.00    +0.000 A 
ATOM     20  C   UNL     1      35.642  31.838  35.408  0.00  0.00    +0.000 A 
ATOM     21  H   UNL     1      34.845  32.403  35.884  0.00  0.00    +0.000 HD
ATOM     22  C   UNL     1      35.395  30.623  34.802  0.00  0.00    +0.000 A 
ENDBRANCH  10  15
ENDBRANCH   5   8
BRANCH   1  23
ATOM     23  C   UNL     1      38.591  25.715  34.024  0.00  0.00    +0.000 C 
ATOM     24  H   UNL     1      39.356  24.895  33.933  0.00  0.00    +0.000 HD
ATOM     25  H   UNL     1      39.122  26.654  33.769  0.00  0.00    +0.000 HD
BRANCH  23  26
ATOM     26  C   UNL     1      38.086  25.760  35.418  0.00  0.00    +0.000 C 
ATOM     27  H   UNL     1      36.966  25.627  35.425  0.00  0.00    +0.000 HD
BRANCH  26  30
ATOM     28  C   UNL     1      38.642  23.372  38.302  0.00  0.00    +0.000 A 
ATOM     29  C   UNL     1      38.042  24.405  37.563  0.00  0.00    +0.000 A 
ATOM     30  C   UNL     1      38.640  24.706  36.290  0.00  0.00    +0.000 A 
ATOM     31  N   UNL     1      39.745  23.986  35.865  0.00  0.00    +0.000 NA
ATOM     32  C   UNL     1      40.268  23.015  36.615  0.00  0.00    +0.000 A 
ATOM     33  N   UNL     1      39.707  22.708  37.847  0.00  0.00    +0.000 NA
ATOM     34  H   UNL     1      38.173  23.167  39.253  0.00  0.00    +0.000 HD
ATOM     35  H   UNL     1      37.183  24.985  37.862  0.00  0.00    +0.000 HD
ATOM     36  H   UNL     1      41.128  22.455  36.284  0.00  0.00    +0.000 HD
ENDBRANCH  26  30
BRANCH  26  37
ATOM     37  C   UNL     1      38.331  27.132  36.035  0.00  0.00    +0.000 C 
ATOM     38  H   UNL     1      37.501  27.416  36.689  0.00  0.00    +0.000 HD
ATOM     39  H   UNL     1      38.576  27.875  35.259  0.00  0.00    +0.000 HD
ATOM     40  H   UNL     1      39.248  27.024  36.673  0.00  0.00    +0.000 HD
ENDBRANCH  26  37
ENDBRANCH  23  26
ENDBRANCH   1  23
TORSDOF 6
