
 OpenBabel03262519483D

 40 43  0  0  1  0  0  0  0  0999 V2000
   37.4300   26.0980   32.8470 N   0  0  0  0  0  0  0  0  0  0  0  0
   37.0720   25.0750   32.0710 C   0  0  0  0  0  0  0  0  0  0  0  0
   35.9960   25.3410   31.2590 C   0  0  0  0  0  0  0  0  0  0  0  0
   35.6690   26.5980   31.5480 N   0  0  0  0  0  0  0  0  0  0  0  0
   36.5320   27.0610   32.5070 C   0  0  0  0  0  0  0  0  0  0  0  0
   37.6150   24.1170   32.1060 H   0  0  0  0  0  0  0  0  0  0  0  0
   35.5680   24.6090   30.5550 H   0  0  0  0  0  0  0  0  0  0  0  0
   36.4050   28.4830   33.0020 C   0  0  1  0  0  0  0  0  0  0  0  0
   35.4360   29.3370   32.2810 C   0  0  0  0  0  0  0  0  0  0  0  0
   35.0870   28.8300   33.6620 C   0  0  2  0  0  0  0  0  0  0  0  0
   37.3120   28.9060   33.4430 H   0  0  0  0  0  0  0  0  0  0  0  0
   34.8170   28.8870   31.4570 H   0  0  0  0  0  0  0  0  0  0  0  0
   35.6870   30.3850   32.0940 H   0  0  0  0  0  0  0  0  0  0  0  0
   34.3870   28.0050   33.7690 H   0  0  0  0  0  0  0  0  0  0  0  0
   34.9860   29.9170   34.6300 C   0  0  0  0  0  0  0  0  0  0  0  0
   36.1110   30.5530   35.1160 C   0  0  0  0  0  3  0  0  0  0  0  0
   35.9460   31.5810   36.0380 C   0  0  0  0  0  0  0  0  0  0  0  0
   36.8340   32.0860   36.4240 H   0  0  0  0  0  0  0  0  0  0  0  0
   34.7220   32.0150   36.5030 C   0  0  0  0  0  3  0  0  0  0  0  0
   33.6080   31.3750   36.0110 C   0  0  0  0  0  0  0  0  0  0  0  0
   32.6230   31.6850   36.3520 H   0  0  0  0  0  0  0  0  0  0  0  0
   33.7600   30.3520   35.0970 C   0  0  0  0  0  3  0  0  0  0  0  0
   38.4300   26.3120   33.8290 C   0  0  0  0  0  0  0  0  0  0  0  0
   39.2310   25.5430   33.6490 H   0  0  0  0  0  0  0  0  0  0  0  0
   38.9180   27.2970   33.6820 H   0  0  0  0  0  0  0  0  0  0  0  0
   37.9260   26.1790   35.2170 C   0  0  1  0  0  0  0  0  0  0  0  0
   36.8040   26.0620   35.2090 H   0  0  0  0  0  0  0  0  0  0  0  0
   38.4080   23.3790   37.7190 C   0  0  0  0  0  0  0  0  0  0  0  0
   37.8190   24.5050   37.1220 C   0  0  0  0  0  0  0  0  0  0  0  0
   38.4640   25.0100   35.9400 C   0  0  0  0  0  0  0  0  0  0  0  0
   39.6020   24.3810   35.4600 N   0  0  0  0  0  0  0  0  0  0  0  0
   40.1130   23.3120   36.0730 C   0  0  0  0  0  0  0  0  0  0  0  0
   39.5060   22.8090   37.2160 N   0  0  0  0  0  0  0  0  0  0  0  0
   37.9030   23.0210   38.6040 H   0  0  0  0  0  0  0  0  0  0  0  0
   36.9350   25.0190   37.4680 H   0  0  0  0  0  0  0  0  0  0  0  0
   40.9980   22.8230   35.6990 H   0  0  0  0  0  0  0  0  0  0  0  0
   38.1920   27.4520   36.0110 C   0  0  0  0  0  0  0  0  0  0  0  0
   37.3660   27.6590   36.6990 H   0  0  0  0  0  0  0  0  0  0  0  0
   38.4480   28.2880   35.3400 H   0  0  0  0  0  0  0  0  0  0  0  0
   39.1070   27.2470   36.6270 H   0  0  0  0  0  0  0  0  0  0  0  0
  1 23  1  0  0  0  0
  2  6  1  0  0  0  0
  2  1  1  0  0  0  0
  3  4  1  0  0  0  0
  3  2  2  0  0  0  0
  4  5  2  0  0  0  0
  5  1  1  0  0  0  0
  5  8  1  0  0  0  0
  7  3  1  0  0  0  0
  8 11  1  1  0  0  0
  8 10  1  0  0  0  0
  9  8  1  0  0  0  0
  9 10  1  0  0  0  0
 10 14  1  1  0  0  0
 10 15  1  0  0  0  0
 12  9  1  0  0  0  0
 13  9  1  0  0  0  0
 15 22  2  0  0  0  0
 15 16  1  0  0  0  0
 16 17  2  0  0  0  0
 17 18  1  0  0  0  0
 17 19  1  0  0  0  0
 20 21  1  0  0  0  0
 20 19  2  0  0  0  0
 22 20  1  0  0  0  0
 23 26  1  0  0  0  0
 24 23  1  0  0  0  0
 25 23  1  0  0  0  0
 26 27  1  6  0  0  0
 26 30  1  0  0  0  0
 26 37  1  0  0  0  0
 28 34  1  0  0  0  0
 29 35  1  0  0  0  0
 29 28  2  0  0  0  0
 30 29  1  0  0  0  0
 31 30  2  0  0  0  0
 31 32  1  0  0  0  0
 32 33  2  0  0  0  0
 33 28  1  0  0  0  0
 36 32  1  0  0  0  0
 37 40  1  0  0  0  0
 37 38  1  0  0  0  0
 39 37  1  0  0  0  0
M  END
>  <minimizedAffinity>
-5.79175997

>  <minimizedRMSD>
1.19654155

$$$$
