
 OpenBabel03262519573D

 31 34  0  0  1  0  0  0  0  0999 V2000
   39.4050   24.0740   31.8490 C   0  0  0  0  0  0  0  0  0  0  0  0
   39.6530   23.8650   30.5040 C   0  0  0  0  0  0  0  0  0  0  0  0
   38.7610   22.8850   30.1520 N   0  0  0  0  0  0  0  0  0  0  0  0
   38.0630   22.5680   31.2290 C   0  0  0  0  0  0  0  0  0  0  0  0
   38.4350   23.2870   32.3020 N   0  0  0  0  0  0  0  0  0  0  0  0
   40.3650   24.3320   29.8360 H   0  0  0  0  0  0  0  0  0  0  0  0
   37.2960   21.8050   31.1690 H   0  0  0  0  0  0  0  0  0  0  0  0
   40.1110   25.0390   32.6870 C   0  0  0  0  0  0  0  0  0  0  0  0
   41.2370   24.6300   33.4260 C   0  0  0  0  0  0  0  0  0  0  0  0
   41.8860   25.5970   34.2210 C   0  0  0  0  0  0  0  0  0  0  0  0
   41.3900   26.8480   34.2200 N   0  0  0  0  0  0  0  0  0  0  0  0
   40.3100   27.2080   33.5000 C   0  0  0  0  0  0  0  0  0  0  0  0
   39.6650   26.3080   32.7310 N   0  0  0  0  0  0  0  0  0  0  0  0
   41.5830   23.5950   33.3780 H   0  0  0  0  0  0  0  0  0  0  0  0
   42.7510   25.2760   34.7860 H   0  0  0  0  0  0  0  0  0  0  0  0
   39.9830   28.2390   33.5630 H   0  0  0  0  0  0  0  0  0  0  0  0
   37.8340   23.1400   33.6050 C   0  0  1  0  0  0  0  0  0  0  0  0
   37.3100   21.8590   34.0890 C   0  0  0  0  0  0  0  0  0  0  0  0
   38.6810   22.2980   34.5460 C   0  0  2  0  0  0  0  0  0  0  0  0
   37.4710   24.0740   34.0360 H   0  0  0  0  0  0  0  0  0  0  0  0
   37.2850   20.9860   33.4130 H   0  0  0  0  0  0  0  0  0  0  0  0
   36.4470   21.9200   34.7780 H   0  0  0  0  0  0  0  0  0  0  0  0
   39.5710   21.7770   34.1650 H   0  0  0  0  0  0  0  0  0  0  0  0
   38.7350   22.6490   35.9770 C   0  0  0  0  0  0  0  0  0  0  0  0
   37.6520   23.0980   36.6980 C   0  0  0  0  0  3  0  0  0  0  0  0
   37.7250   23.4190   38.0330 C   0  0  0  0  0  0  0  0  0  0  0  0
   36.8550   23.7780   38.6000 H   0  0  0  0  0  0  0  0  0  0  0  0
   38.9120   23.3010   38.7220 C   0  0  0  0  0  3  0  0  0  0  0  0
   40.0130   22.8580   38.0450 C   0  0  0  0  0  0  0  0  0  0  0  0
   40.9810   22.7490   38.5540 H   0  0  0  0  0  0  0  0  0  0  0  0
   39.9020   22.5460   36.7090 C   0  0  0  0  0  3  0  0  0  0  0  0
  1  5  1  0  0  0  0
  1  8  1  0  0  0  0
  2  1  2  0  0  0  0
  3  2  1  0  0  0  0
  3  4  2  0  0  0  0
  4  5  1  0  0  0  0
  5 17  1  0  0  0  0
  6  2  1  0  0  0  0
  7  4  1  0  0  0  0
  8 13  2  0  0  0  0
  8  9  1  0  0  0  0
  9 10  2  0  0  0  0
 10 15  1  0  0  0  0
 11 10  1  0  0  0  0
 12 16  1  0  0  0  0
 12 11  2  0  0  0  0
 13 12  1  0  0  0  0
 14  9  1  0  0  0  0
 17 20  1  1  0  0  0
 17 18  1  0  0  0  0
 17 19  1  0  0  0  0
 18 19  1  0  0  0  0
 18 22  1  0  0  0  0
 19 23  1  6  0  0  0
 19 24  1  0  0  0  0
 21 18  1  0  0  0  0
 24 25  2  0  0  0  0
 24 31  1  0  0  0  0
 25 26  1  0  0  0  0
 26 27  1  0  0  0  0
 26 28  2  0  0  0  0
 29 30  1  0  0  0  0
 29 28  1  0  0  0  0
 31 29  2  0  0  0  0
M  END
>  <minimizedAffinity>
-4.27995348

>  <minimizedRMSD>
5.40321255

$$$$
