
 OpenBabel03262518043D

 31 34  0  0  0  0  0  0  0  0999 V2000
   43.6190   19.7300   37.0840 C   0  0  0  0  0  0  0  0  0  0  0  0
   42.4750   20.5070   37.3040 C   0  0  0  0  0  0  0  0  0  0  0  0
   41.9380   21.2370   36.2270 C   0  0  0  0  0  0  0  0  0  0  0  0
   42.5930   21.1310   35.0110 N   0  0  0  0  0  0  0  0  0  0  0  0
   43.6750   20.3830   34.8450 C   0  0  0  0  0  0  0  0  0  0  0  0
   44.1970   19.6720   35.8920 N   0  0  0  0  0  0  0  0  0  0  0  0
   44.0310   19.1740   37.8930 H   0  0  0  0  0  0  0  0  0  0  0  0
   41.9810   20.5680   38.2820 H   0  0  0  0  0  0  0  0  0  0  0  0
   44.3330   20.3070   33.5240 C   0  0  0  0  0  0  0  0  0  0  0  0
   45.7150   20.0580   33.3660 C   0  0  0  0  0  0  0  0  0  0  0  0
   46.2120   19.9990   32.1040 C   0  0  0  0  0  0  0  0  0  0  0  0
   45.3860   20.1810   30.9980 C   0  0  0  0  0  0  0  0  0  0  0  0
   43.7370   20.4640   31.8170 S   0  0  0  0  0  0  0  0  0  0  0  0
   46.3580   19.9140   34.2330 H   0  0  0  0  0  0  0  0  0  0  0  0
   47.2490   19.8150   31.8690 H   0  0  0  0  0  0  0  0  0  0  0  0
   45.6360   20.1480   29.6440 N   0  0  0  0  0  0  0  0  0  0  0  0
   46.2200   21.0790   28.7270 C   0  0  0  0  0  0  0  0  0  0  0  0
   45.5460   21.2350   27.4120 C   0  0  0  0  0  0  0  0  0  0  0  0
   44.9050   19.9980   26.8550 C   0  0  0  0  0  0  0  0  0  0  0  0
   44.2590   20.2470   26.0180 H   0  0  0  0  0  0  0  0  0  0  0  0
   44.1180   19.3830   28.0190 C   0  0  0  0  0  0  0  0  0  0  0  0
   45.2280   18.9290   28.9760 C   0  0  0  0  0  0  0  0  0  0  0  0
   40.7550   22.0650   36.3660 C   0  0  0  0  0  0  0  0  0  0  0  0
   39.9120   22.6620   35.4960 N   0  0  0  0  0  0  0  0  0  0  0  0
   38.9960   23.3020   36.1700 O   0  0  0  0  0  0  0  0  0  0  0  0
   39.2160   23.1410   37.4810 C   0  0  0  0  0  0  0  0  0  0  0  0
   40.2970   22.3820   37.6000 N   0  0  0  0  0  0  0  0  0  0  0  0
   38.4110   23.7000   38.5700 C   0  0  0  0  0  0  0  0  0  0  0  0
   39.2440   23.8840   39.6840 F   0  0  0  0  0  0  0  0  0  0  0  0
   37.3700   22.8840   38.9230 F   0  0  0  0  0  0  0  0  0  0  0  0
   37.9470   24.9660   38.2320 F   0  0  0  0  0  0  0  0  0  0  0  0
  1  2  1  0  0  0  0
  1  7  1  0  0  0  0
  2  8  1  0  0  0  0
  3 23  1  0  0  0  0
  3  2  2  0  0  0  0
  4  3  1  0  0  0  0
  5  4  2  0  0  0  0
  5  6  1  0  0  0  0
  6  1  2  0  0  0  0
  9  5  1  0  0  0  0
 10  9  2  0  0  0  0
 10 14  1  0  0  0  0
 11 10  1  0  0  0  0
 12 13  1  0  0  0  0
 12 11  2  0  0  0  0
 13  9  1  0  0  0  0
 15 11  1  0  0  0  0
 16 12  1  0  0  0  0
 17 16  1  0  0  0  0
 18 17  1  0  0  0  0
 19 18  1  0  0  0  0
 19 21  1  0  0  0  0
 20 19  1  0  0  0  0
 21 22  1  0  0  0  0
 22 16  1  0  0  0  0
 23 27  1  0  0  0  0
 24 25  1  0  0  0  0
 24 23  2  0  0  0  0
 25 26  1  0  0  0  0
 26 27  2  0  0  0  0
 26 28  1  0  0  0  0
 28 30  1  0  0  0  0
 28 29  1  0  0  0  0
 31 28  1  0  0  0  0
M  END
>  <minimizedAffinity>
-3.88928413

>  <minimizedRMSD>
0.132783443

$$$$
