
 OpenBabel03262516343D

 30 32  0  0  1  0  0  0  0  0999 V2000
   39.8900   23.0140   37.8380 C   0  0  0  0  0  0  0  0  0  0  0  0
   38.8560   23.3140   38.7350 C   0  0  0  0  0  0  0  0  0  0  0  0
   37.5570   23.3110   38.2180 C   0  0  0  0  0  0  0  0  0  0  0  0
   37.3960   23.0190   36.8940 N   0  0  0  0  0  0  0  0  0  0  0  0
   38.4270   22.7350   36.0670 C   0  0  0  0  0  0  0  0  0  0  0  0
   39.6760   22.7360   36.5560 N   0  0  0  0  0  0  0  0  0  0  0  0
   38.1100   22.4500   34.7110 N   0  0  0  0  0  0  0  0  0  0  0  0
   36.9930   21.5890   34.4250 C   0  0  0  0  0  0  0  0  0  0  0  0
   36.6130   21.5660   32.9830 C   0  0  0  0  0  0  0  0  0  0  0  0
   36.9830   22.8070   32.3630 N   0  0  0  0  0  0  0  0  0  0  0  0
   38.4460   22.8520   32.3070 C   0  0  0  0  0  0  0  0  0  0  0  0
   38.9720   23.0760   33.6930 C   0  0  2  0  0  0  0  0  0  0  0  0
   40.9400   22.9940   38.1600 H   0  0  0  0  0  0  0  0  0  0  0  0
   39.0800   23.5330   39.7670 H   0  0  0  0  0  0  0  0  0  0  0  0
   36.7250   23.5350   38.8650 H   0  0  0  0  0  0  0  0  0  0  0  0
   36.1150   22.0110   34.9710 H   0  0  0  0  0  0  0  0  0  0  0  0
   37.1220   20.5720   34.8450 H   0  0  0  0  0  0  0  0  0  0  0  0
   37.2520   20.7700   32.5080 H   0  0  0  0  0  0  0  0  0  0  0  0
   35.5400   21.3330   32.8400 H   0  0  0  0  0  0  0  0  0  0  0  0
   36.6130   22.8460   31.4050 H   0  0  0  0  0  0  0  0  0  0  0  0
   38.7360   21.8870   31.8590 H   0  0  0  0  0  0  0  0  0  0  0  0
   38.7170   23.7230   31.6800 H   0  0  0  0  0  0  0  0  0  0  0  0
   38.8150   24.1750   33.8860 H   0  0  0  0  0  0  0  0  0  0  0  0
   40.3410   22.8250   33.9030 N   0  0  0  0  0  0  0  0  0  0  0  0
   41.2480   23.9000   33.7980 C   0  0  0  0  0  0  0  0  0  0  0  0
   41.7680   24.2980   35.1720 C   0  0  0  0  0  0  0  0  0  0  0  0
   42.5870   23.1650   35.7510 C   0  0  0  0  0  0  0  0  0  0  0  0
   43.6610   23.2390   35.4480 H   0  0  0  0  0  0  0  0  0  0  0  0
   42.0460   21.8180   35.3480 C   0  0  0  0  0  0  0  0  0  0  0  0
   40.5790   21.9620   35.0120 C   0  0  0  0  0  0  0  0  0  0  0  0
  1 13  1  0  0  0  0
  1  2  1  0  0  0  0
  2 14  1  0  0  0  0
  3  2  2  0  0  0  0
  3 15  1  0  0  0  0
  4  3  1  0  0  0  0
  5  6  1  0  0  0  0
  5  4  2  0  0  0  0
  6  1  2  0  0  0  0
  7  5  1  0  0  0  0
  8  7  1  0  0  0  0
  8 17  1  0  0  0  0
  8 16  1  0  0  0  0
  9  8  1  0  0  0  0
 10  9  1  0  0  0  0
 11 10  1  0  0  0  0
 11 12  1  0  0  0  0
 12 23  1  1  0  0  0
 12 24  1  0  0  0  0
 12  7  1  0  0  0  0
 18  9  1  0  0  0  0
 19  9  1  0  0  0  0
 20 10  1  0  0  0  0
 21 11  1  0  0  0  0
 22 11  1  0  0  0  0
 24 30  1  0  0  0  0
 25 24  1  0  0  0  0
 25 26  1  0  0  0  0
 26 27  1  0  0  0  0
 28 27  1  0  0  0  0
 29 27  1  0  0  0  0
 30 29  1  0  0  0  0
M  END
>  <minimizedAffinity>
-4.21720362

>  <minimizedRMSD>
1.38116384

$$$$
