
 OpenBabel03262515373D

 37 40  0  0  0  0  0  0  0  0999 V2000
   39.2390   27.1970   35.3250 C   0  0  0  0  0  0  0  0  0  0  0  0
   39.4490   27.8240   34.4130 H   0  0  0  0  0  0  0  0  0  0  0  0
   39.6350   27.7940   36.1750 H   0  0  0  0  0  0  0  0  0  0  0  0
   41.8950   24.6120   34.8420 C   0  0  0  0  0  0  0  0  0  0  0  0
   41.1720   23.4550   35.0510 C   0  0  0  0  0  0  0  0  0  0  0  0
   39.7900   23.5380   35.3530 C   0  0  0  0  0  0  0  0  0  0  0  0
   39.2390   24.7780   35.4250 N   0  0  0  0  0  0  0  0  0  0  0  0
   39.9840   25.9060   35.2130 C   0  0  0  0  0  0  0  0  0  0  0  0
   41.2950   25.8280   34.9250 N   0  0  0  0  0  0  0  0  0  0  0  0
   42.9590   24.5920   34.6070 H   0  0  0  0  0  0  0  0  0  0  0  0
   41.6320   22.4900   34.9880 H   0  0  0  0  0  0  0  0  0  0  0  0
   39.0350   22.3040   35.5720 C   0  0  0  0  0  0  0  0  0  0  0  0
   39.0590   21.9650   36.6440 H   0  0  0  0  0  0  0  0  0  0  0  0
   39.5680   21.4960   35.0260 H   0  0  0  0  0  0  0  0  0  0  0  0
   37.6920   22.3230   35.1080 N   0  0  0  0  0  0  0  0  0  0  0  0
   36.6850   21.9330   36.0160 C   0  0  0  0  0  0  0  0  0  0  0  0
   35.9770   20.6520   35.6600 C   0  0  0  0  0  0  0  0  0  0  0  0
   35.5100   20.6910   34.2110 C   0  0  0  0  0  0  0  0  0  0  0  0
   34.9730   19.7450   33.9880 H   0  0  0  0  0  0  0  0  0  0  0  0
   36.7650   20.8320   33.3690 C   0  0  0  0  0  0  0  0  0  0  0  0
   37.4670   22.0980   33.7330 C   0  0  0  0  0  0  0  0  0  0  0  0
   37.7750   26.9150   35.4860 C   0  0  0  0  0  0  0  0  0  0  0  0
   37.3590   27.5090   36.3510 H   0  0  0  0  0  0  0  0  0  0  0  0
   37.6060   25.8440   35.6330 H   0  0  0  0  0  0  0  0  0  0  0  0
   37.0040   27.3670   34.2900 C   0  0  0  0  0  0  0  0  0  0  0  0
   37.0240   26.7340   33.0950 N   0  0  0  0  0  0  0  0  0  0  0  0
   36.2510   27.3680   32.2540 O   0  0  0  0  0  0  0  0  0  0  0  0
   35.7190   28.4010   32.8420 C   0  0  0  0  0  0  0  0  0  0  0  0
   36.1770   28.4180   34.1180 N   0  0  0  0  0  0  0  0  0  0  0  0
   34.8010   29.4190   32.3610 C   0  0  0  0  0  0  0  0  0  0  0  0
   34.9550   30.4560   31.4730 C   0  0  0  0  0  0  0  0  0  0  0  0
   33.7520   31.1340   31.3690 C   0  0  0  0  0  0  0  0  0  0  0  0
   32.9060   30.4450   32.2340 C   0  0  0  0  0  0  0  0  0  0  0  0
   33.5500   29.4570   32.7900 O   0  0  0  0  0  0  0  0  0  0  0  0
   35.9390   30.5850   31.0070 H   0  0  0  0  0  0  0  0  0  0  0  0
   33.6430   31.9760   30.7330 H   0  0  0  0  0  0  0  0  0  0  0  0
   31.8670   30.7490   32.3710 H   0  0  0  0  0  0  0  0  0  0  0  0
  1 22  1  0  0  0  0
  1  3  1  0  0  0  0
  2  1  1  0  0  0  0
  4  9  2  0  0  0  0
  4  5  1  0  0  0  0
  5  6  2  0  0  0  0
  6  7  1  0  0  0  0
  6 12  1  0  0  0  0
  8  1  1  0  0  0  0
  8  7  2  0  0  0  0
  9  8  1  0  0  0  0
 10  4  1  0  0  0  0
 11  5  1  0  0  0  0
 12 13  1  0  0  0  0
 14 12  1  0  0  0  0
 15 12  1  0  0  0  0
 15 16  1  0  0  0  0
 17 16  1  0  0  0  0
 18 17  1  0  0  0  0
 19 18  1  0  0  0  0
 20 21  1  0  0  0  0
 20 18  1  0  0  0  0
 21 15  1  0  0  0  0
 22 24  1  0  0  0  0
 22 23  1  0  0  0  0
 25 22  1  0  0  0  0
 26 25  2  0  0  0  0
 27 28  1  0  0  0  0
 27 26  1  0  0  0  0
 28 29  2  0  0  0  0
 29 25  1  0  0  0  0
 30 34  1  0  0  0  0
 30 28  1  0  0  0  0
 31 30  2  0  0  0  0
 32 31  1  0  0  0  0
 32 33  2  0  0  0  0
 33 37  1  0  0  0  0
 33 34  1  0  0  0  0
 35 31  1  0  0  0  0
 36 32  1  0  0  0  0
M  END
>  <minimizedAffinity>
-5.00885391

>  <minimizedRMSD>
1.84951913

$$$$
