
 OpenBabel03262519543D

 30 33  0  0  1  0  0  0  0  0999 V2000
   38.1840   24.2150   34.6130 C   0  0  0  0  0  0  0  0  0  0  0  0
   38.2580   25.5070   34.0930 C   0  0  0  0  0  0  0  0  0  0  0  0
   37.9000   25.3550   32.7870 N   0  0  0  0  0  0  0  0  0  0  0  0
   37.6410   24.0730   32.5720 C   0  0  0  0  0  0  0  0  0  0  0  0
   37.8090   23.3380   33.6870 N   0  0  0  0  0  0  0  0  0  0  0  0
   38.5390   26.4110   34.6340 H   0  0  0  0  0  0  0  0  0  0  0  0
   37.3420   23.8090   31.5610 H   0  0  0  0  0  0  0  0  0  0  0  0
   38.4800   23.8540   35.9910 C   0  0  0  0  0  0  0  0  0  0  0  0
   39.6640   23.1910   36.3140 C   0  0  0  0  0  0  0  0  0  0  0  0
   39.9060   22.8640   37.6600 C   0  0  0  0  0  0  0  0  0  0  0  0
   38.9740   23.2120   38.5680 N   0  0  0  0  0  0  0  0  0  0  0  0
   37.8350   23.8530   38.2350 C   0  0  0  0  0  0  0  0  0  0  0  0
   37.5780   24.1790   36.9540 N   0  0  0  0  0  0  0  0  0  0  0  0
   40.3890   22.9320   35.5390 H   0  0  0  0  0  0  0  0  0  0  0  0
   40.8150   22.3490   37.9530 H   0  0  0  0  0  0  0  0  0  0  0  0
   37.1620   24.0790   39.0600 H   0  0  0  0  0  0  0  0  0  0  0  0
   37.5980   21.9140   33.7450 C   0  0  1  0  0  0  0  0  0  0  0  0
   36.4590   21.3060   34.4400 C   0  0  0  0  0  0  0  0  0  0  0  0
   36.3930   21.4670   32.9440 C   0  0  2  0  0  0  0  0  0  0  0  0
   38.5270   21.3100   33.6270 H   0  0  0  0  0  0  0  0  0  0  0  0
   36.6050   20.3050   34.8940 H   0  0  0  0  0  0  0  0  0  0  0  0
   35.7520   21.9170   35.0490 H   0  0  0  0  0  0  0  0  0  0  0  0
   35.6640   22.2370   32.5800 H   0  0  0  0  0  0  0  0  0  0  0  0
   36.5410   20.3700   32.0790 N   0  0  0  0  0  0  0  0  0  0  0  0
   37.0060   20.6020   30.7740 C   0  0  0  0  0  2  0  0  0  0  0  0
   36.6730   19.5280   29.7930 C   0  0  0  0  0  2  0  0  0  0  0  0
   36.6840   18.1420   30.3710 C   0  0  0  0  0  3  0  0  0  0  0  0
   36.3110   17.4350   29.6250 H   0  0  0  0  0  0  0  0  0  0  0  0
   35.8810   18.1260   31.6450 C   0  0  0  0  0  2  0  0  0  0  0  0
   36.5910   19.0810   32.6090 C   0  0  0  0  0  2  0  0  0  0  0  0
  1  8  1  0  0  0  0
  2  1  2  0  0  0  0
  2  6  1  0  0  0  0
  3  2  1  0  0  0  0
  4  3  2  0  0  0  0
  4  5  1  0  0  0  0
  5 17  1  0  0  0  0
  5  1  1  0  0  0  0
  7  4  1  0  0  0  0
  8  9  2  0  0  0  0
  8 13  1  0  0  0  0
  9 10  1  0  0  0  0
 10 15  1  0  0  0  0
 10 11  2  0  0  0  0
 12 11  1  0  0  0  0
 12 16  1  0  0  0  0
 13 12  2  0  0  0  0
 14  9  1  0  0  0  0
 17 20  1  6  0  0  0
 17 18  1  0  0  0  0
 18 21  1  0  0  0  0
 18 22  1  0  0  0  0
 19 23  1  6  0  0  0
 19 17  1  0  0  0  0
 19 18  1  0  0  0  0
 24 30  1  0  0  0  0
 24 19  1  0  0  0  0
 25 24  1  0  0  0  0
 26 27  1  0  0  0  0
 26 25  1  0  0  0  0
 27 29  1  0  0  0  0
 28 27  1  0  0  0  0
 29 30  1  0  0  0  0
M  END
>  <minimizedAffinity>
-4.51701212

>  <minimizedRMSD>
1.40247035

$$$$
