REMARK  Name = 
REMARK  3 active torsions:
REMARK  status: ('A' for Active; 'I' for Inactive)
REMARK    1  A    between atoms: C_1  and  C_6
REMARK    2  A    between atoms: N_5  and  C_12
REMARK    3  A    between atoms: C_14  and  N_24
REMARK                            x       y       z     vdW  Elec       q    Type
REMARK                         _______ _______ _______ _____ _____    ______ ____
ROOT
ATOM      1  C   UNL     1      38.031  23.470  34.622  0.00  0.00    +0.000 A 
ATOM      2  C   UNL     1      38.264  24.567  33.793  0.00  0.00    +0.000 A 
ATOM      3  N   UNL     1      37.764  24.178  32.587  0.00  0.00    +0.000 NA
ATOM      4  C   UNL     1      37.281  22.950  32.713  0.00  0.00    +0.000 A 
ATOM      5  N   UNL     1      37.432  22.482  33.966  0.00  0.00    +0.000 N 
ATOM      6  H   UNL     1      38.739  25.507  34.076  0.00  0.00    +0.000 HD
ATOM      7  H   UNL     1      36.848  22.513  31.817  0.00  0.00    +0.000 HD
ENDROOT
BRANCH   1   8
ATOM      8  C   UNL     1      38.393  23.399  36.030  0.00  0.00    +0.000 A 
ATOM      9  C   UNL     1      39.592  22.805  36.426  0.00  0.00    +0.000 A 
ATOM     10  C   UNL     1      39.899  22.760  37.797  0.00  0.00    +0.000 A 
ATOM     11  N   UNL     1      39.012  23.297  38.657  0.00  0.00    +0.000 NA
ATOM     12  C   UNL     1      37.858  23.867  38.254  0.00  0.00    +0.000 A 
ATOM     13  N   UNL     1      37.539  23.924  36.947  0.00  0.00    +0.000 NA
ATOM     14  H   UNL     1      40.278  22.384  35.687  0.00  0.00    +0.000 HD
ATOM     15  H   UNL     1      40.821  22.307  38.147  0.00  0.00    +0.000 HD
ATOM     16  H   UNL     1      37.226  24.265  39.045  0.00  0.00    +0.000 HD
ENDBRANCH   1   8
BRANCH   5  17
ATOM     17  C   UNL     1      36.998  21.175  34.388  0.00  0.00    +0.000 C 
ATOM     18  C   UNL     1      35.834  20.964  35.254  0.00  0.00    +0.000 C 
ATOM     19  C   UNL     1      35.677  20.767  33.770  0.00  0.00    +0.000 C 
ATOM     20  H   UNL     1      37.805  20.406  34.393  0.00  0.00    +0.000 HD
ATOM     21  H   UNL     1      35.851  20.093  35.941  0.00  0.00    +0.000 HD
ATOM     22  H   UNL     1      35.285  21.819  35.715  0.00  0.00    +0.000 HD
ATOM     23  H   UNL     1      35.056  21.542  33.249  0.00  0.00    +0.000 HD
BRANCH  19  24
ATOM     24  N   UNL     1      35.577  19.485  33.204  0.00  0.00    +0.000 NA
ATOM     25  C   UNL     1      36.702  18.645  33.236  0.00  0.00    +0.000 C 
ATOM     26  C   UNL     1      36.694  17.551  32.222  0.00  0.00    +0.000 C 
ATOM     27  C   UNL     1      35.332  16.989  31.936  0.00  0.00    +0.000 C 
ATOM     28  H   UNL     1      35.399  16.287  31.099  0.00  0.00    +0.000 HD
ATOM     29  C   UNL     1      34.370  18.117  31.677  0.00  0.00    +0.000 C 
ATOM     30  C   UNL     1      34.316  18.937  32.970  0.00  0.00    +0.000 C 
ENDBRANCH  19  24
ENDBRANCH   5  17
TORSDOF 3
