
 OpenBabel03262519543D

 30 33  0  0  1  0  0  0  0  0999 V2000
   38.0830   24.2400   34.5690 C   0  0  0  0  0  0  0  0  0  0  0  0
   38.0500   25.5550   34.1070 C   0  0  0  0  0  0  0  0  0  0  0  0
   37.6920   25.4340   32.7980 N   0  0  0  0  0  0  0  0  0  0  0  0
   37.5330   24.1460   32.5280 C   0  0  0  0  0  0  0  0  0  0  0  0
   37.7690   23.3780   33.6080 N   0  0  0  0  0  0  0  0  0  0  0  0
   38.2650   26.4540   34.6860 H   0  0  0  0  0  0  0  0  0  0  0  0
   37.2450   23.9040   31.5080 H   0  0  0  0  0  0  0  0  0  0  0  0
   38.4190   23.8430   35.9290 C   0  0  0  0  0  0  0  0  0  0  0  0
   39.6510   23.2540   36.2130 C   0  0  0  0  0  0  0  0  0  0  0  0
   39.9310   22.8880   37.5410 C   0  0  0  0  0  0  0  0  0  0  0  0
   38.9870   23.1290   38.4710 N   0  0  0  0  0  0  0  0  0  0  0  0
   37.8010   23.7010   38.1760 C   0  0  0  0  0  0  0  0  0  0  0  0
   37.5070   24.0620   36.9120 N   0  0  0  0  0  0  0  0  0  0  0  0
   40.3830   23.0800   35.4210 H   0  0  0  0  0  0  0  0  0  0  0  0
   40.8770   22.4260   37.8040 H   0  0  0  0  0  0  0  0  0  0  0  0
   37.1240   23.8440   39.0150 H   0  0  0  0  0  0  0  0  0  0  0  0
   37.6700   21.9410   33.6030 C   0  0  1  0  0  0  0  0  0  0  0  0
   36.4930   21.2220   34.1010 C   0  0  0  0  0  0  0  0  0  0  0  0
   36.6420   21.4260   32.6170 C   0  0  2  0  0  0  0  0  0  0  0  0
   38.6530   21.4160   33.6190 H   0  0  0  0  0  0  0  0  0  0  0  0
   36.6500   20.2210   34.5530 H   0  0  0  0  0  0  0  0  0  0  0  0
   35.6530   21.7550   34.6060 H   0  0  0  0  0  0  0  0  0  0  0  0
   35.9160   22.1480   32.1600 H   0  0  0  0  0  0  0  0  0  0  0  0
   37.0110   20.3740   31.7630 N   0  0  0  0  0  0  0  0  0  0  0  0
   38.2840   19.7990   31.9130 C   0  0  0  0  0  2  0  0  0  0  0  0
   38.7870   19.0730   30.7110 C   0  0  0  0  0  2  0  0  0  0  0  0
   37.7190   18.3630   29.9310 C   0  0  0  0  0  3  0  0  0  0  0  0
   38.1490   17.9660   29.0070 H   0  0  0  0  0  0  0  0  0  0  0  0
   36.5720   19.3060   29.6830 C   0  0  0  0  0  2  0  0  0  0  0  0
   36.0230   19.6820   31.0630 C   0  0  0  0  0  2  0  0  0  0  0  0
  1  8  1  0  0  0  0
  2  1  2  0  0  0  0
  2  6  1  0  0  0  0
  3  2  1  0  0  0  0
  4  3  2  0  0  0  0
  4  5  1  0  0  0  0
  5  1  1  0  0  0  0
  7  4  1  0  0  0  0
  8  9  2  0  0  0  0
  8 13  1  0  0  0  0
  9 10  1  0  0  0  0
 10 15  1  0  0  0  0
 10 11  2  0  0  0  0
 12 11  1  0  0  0  0
 12 16  1  0  0  0  0
 13 12  2  0  0  0  0
 14  9  1  0  0  0  0
 17  5  1  0  0  0  0
 17 20  1  1  0  0  0
 17 18  1  0  0  0  0
 18 21  1  0  0  0  0
 18 22  1  0  0  0  0
 19 23  1  6  0  0  0
 19 17  1  0  0  0  0
 19 18  1  0  0  0  0
 24 25  1  0  0  0  0
 24 19  1  0  0  0  0
 26 25  1  0  0  0  0
 27 26  1  0  0  0  0
 28 27  1  0  0  0  0
 29 27  1  0  0  0  0
 29 30  1  0  0  0  0
 30 24  1  0  0  0  0
M  END
>  <minimizedAffinity>
-4.51978922

>  <minimizedRMSD>
1.74918222

$$$$
