
 OpenBabel03262519243D

 43 48  0  0  0  0  0  0  0  0999 V2000
   39.5190   23.5290   32.4600 C   0  0  0  0  0  0  0  0  0  0  0  0
   40.4470   22.4950   32.4190 C   0  0  0  0  0  0  0  0  0  0  0  0
   40.0960   21.1900   32.0650 C   0  0  0  0  0  0  0  0  0  0  0  0
   38.7790   20.8970   31.7420 C   0  0  0  0  0  0  0  0  0  0  0  0
   37.8360   21.9080   31.7740 C   0  0  0  0  0  0  0  0  0  0  0  0
   36.5390   21.6210   31.4550 C   0  0  0  0  0  0  0  0  0  0  0  0
   35.5560   22.5910   31.4680 C   0  0  0  0  0  0  0  0  0  0  0  0
   35.9400   23.8970   31.8230 C   0  0  0  0  0  0  0  0  0  0  0  0
   37.2740   24.1290   32.1360 C   0  0  0  0  0  0  0  0  0  0  0  0
   38.2370   23.1670   32.1260 C   0  0  0  0  0  0  0  0  0  0  0  0
   41.4580   22.7950   32.6840 H   0  0  0  0  0  0  0  0  0  0  0  0
   40.9230   20.4980   32.0780 H   0  0  0  0  0  0  0  0  0  0  0  0
   38.5660   19.8800   31.4800 H   0  0  0  0  0  0  0  0  0  0  0  0
   36.3300   20.5830   31.1920 H   0  0  0  0  0  0  0  0  0  0  0  0
   34.5750   22.1950   31.1900 H   0  0  0  0  0  0  0  0  0  0  0  0
   35.0290   24.4720   31.7700 H   0  0  0  0  0  0  0  0  0  0  0  0
   39.9190   24.8530   32.8360 C   0  0  0  0  0  0  0  0  0  0  0  0
   40.0370   25.2620   34.1780 C   0  0  0  0  0  0  0  0  0  0  0  0
   40.4520   26.5770   34.4240 C   0  0  0  0  0  0  0  0  0  0  0  0
   40.7230   27.4040   33.3810 N   0  0  0  0  0  0  0  0  0  0  0  0
   40.6030   26.9750   32.1040 C   0  0  0  0  0  0  0  0  0  0  0  0
   40.2160   25.7460   31.8700 N   0  0  0  0  0  0  0  0  0  0  0  0
   40.5500   26.9200   35.4410 H   0  0  0  0  0  0  0  0  0  0  0  0
   40.8210   27.6300   31.2730 H   0  0  0  0  0  0  0  0  0  0  0  0
   39.7780   24.3640   35.2060 N   0  0  0  0  0  0  0  0  0  0  0  0
   38.5930   24.1430   35.7890 C   0  0  0  0  0  0  0  0  0  0  0  0
   38.6660   23.2100   36.7560 N   0  0  0  0  0  0  0  0  0  0  0  0
   39.9680   22.8180   36.7880 C   0  0  0  0  0  0  0  0  0  0  0  0
   40.6600   21.9070   37.5440 C   0  0  0  0  0  0  0  0  0  0  0  0
   41.9810   21.6650   37.4040 N   0  0  0  0  0  0  0  0  0  0  0  0
   42.6100   22.3950   36.4450 C   0  0  0  0  0  0  0  0  0  0  0  0
   41.9210   23.2740   35.7230 N   0  0  0  0  0  0  0  0  0  0  0  0
   40.6290   23.5410   35.8280 C   0  0  0  0  0  0  0  0  0  0  0  0
   37.5940   24.5270   35.6690 H   0  0  0  0  0  0  0  0  0  0  0  0
   40.1150   21.3430   38.3020 H   0  0  0  0  0  0  0  0  0  0  0  0
   43.6480   22.3390   36.1950 H   0  0  0  0  0  0  0  0  0  0  0  0
   37.1840   25.5300   32.3890 N   0  0  0  0  0  0  0  0  0  0  0  0
   36.9940   26.4170   33.5130 C   0  0  0  0  0  0  0  0  0  0  0  0
   37.0580   27.8470   33.0400 C   0  0  0  0  0  0  0  0  0  0  0  0
   35.8790   28.0890   32.1240 C   0  0  0  0  0  0  0  0  0  0  0  0
   35.7990   29.1620   31.8500 H   0  0  0  0  0  0  0  0  0  0  0  0
   36.0190   27.1820   30.9500 C   0  0  0  0  0  0  0  0  0  0  0  0
   37.2170   26.2820   31.1060 C   0  0  0  0  0  0  0  0  0  0  0  0
  1 17  1  0  0  0  0
  2  1  1  0  0  0  0
  2 11  1  0  0  0  0
  3 12  1  0  0  0  0
  3  2  2  0  0  0  0
  4  5  2  0  0  0  0
  4  3  1  0  0  0  0
  5 10  1  0  0  0  0
  6  7  2  0  0  0  0
  6  5  1  0  0  0  0
  7  8  1  0  0  0  0
  8  9  2  0  0  0  0
  9 37  1  0  0  0  0
 10  9  1  0  0  0  0
 10  1  2  0  0  0  0
 13  4  1  0  0  0  0
 14  6  1  0  0  0  0
 15  7  1  0  0  0  0
 16  8  1  0  0  0  0
 17 18  1  0  0  0  0
 18 19  2  0  0  0  0
 18 25  1  0  0  0  0
 19 23  1  0  0  0  0
 20 19  1  0  0  0  0
 21 20  2  0  0  0  0
 22 21  1  0  0  0  0
 22 17  2  0  0  0  0
 24 21  1  0  0  0  0
 25 26  1  0  0  0  0
 25 33  1  0  0  0  0
 26 27  2  0  0  0  0
 27 28  1  0  0  0  0
 28 29  1  0  0  0  0
 29 35  1  0  0  0  0
 30 29  2  0  0  0  0
 31 30  1  0  0  0  0
 32 33  1  0  0  0  0
 32 31  2  0  0  0  0
 33 28  2  0  0  0  0
 34 26  1  0  0  0  0
 36 31  1  0  0  0  0
 37 38  1  0  0  0  0
 39 38  1  0  0  0  0
 40 39  1  0  0  0  0
 41 40  1  0  0  0  0
 42 43  1  0  0  0  0
 42 40  1  0  0  0  0
 43 37  1  0  0  0  0
M  END
>  <minimizedAffinity>
-6.0933795

>  <minimizedRMSD>
1.91616642

$$$$
