
 OpenBabel03262519013D

 37 40  0  0  0  0  0  0  0  0999 V2000
   37.7090   27.2030   35.0580 C   0  0  0  0  0  0  0  0  0  0  0  0
   38.0460   28.2740   35.2560 H   0  0  0  0  0  0  0  0  0  0  0  0
   37.0270   27.0070   35.8850 H   0  0  0  0  0  0  0  0  0  0  0  0
   38.9590   26.4470   35.0270 C   0  0  0  0  0  0  0  0  0  0  0  0
   40.0820   26.9690   34.3890 C   0  0  0  0  0  0  0  0  0  0  0  0
   41.2660   26.2760   34.3610 C   0  0  0  0  0  0  0  0  0  0  0  0
   41.3780   25.0260   34.9740 C   0  0  0  0  0  0  0  0  0  0  0  0
   40.2540   24.5020   35.6130 C   0  0  0  0  0  0  0  0  0  0  0  0
   40.3500   23.2710   36.2210 C   0  0  0  0  0  0  0  0  0  0  0  0
   39.2700   22.7100   36.8650 C   0  0  0  0  0  0  0  0  0  0  0  0
   38.0720   23.4110   36.8930 C   0  0  0  0  0  0  0  0  0  0  0  0
   38.0100   24.6530   36.2680 C   0  0  0  0  0  0  0  0  0  0  0  0
   39.0750   25.2380   35.6170 C   0  0  0  0  0  0  0  0  0  0  0  0
   40.0130   27.9330   33.9090 H   0  0  0  0  0  0  0  0  0  0  0  0
   42.1360   26.6840   33.8640 H   0  0  0  0  0  0  0  0  0  0  0  0
   42.2980   24.4540   34.9710 H   0  0  0  0  0  0  0  0  0  0  0  0
   41.2790   22.7150   36.2060 H   0  0  0  0  0  0  0  0  0  0  0  0
   39.3090   21.7390   37.3560 H   0  0  0  0  0  0  0  0  0  0  0  0
   37.2220   22.9700   37.3990 H   0  0  0  0  0  0  0  0  0  0  0  0
   37.0380   25.1190   36.3410 H   0  0  0  0  0  0  0  0  0  0  0  0
   36.3010   28.7400   32.0550 C   0  0  0  0  0  0  0  0  0  0  0  0
   35.8560   27.6740   31.2890 C   0  0  0  0  0  0  0  0  0  0  0  0
   36.0400   26.3800   31.8170 C   0  0  0  0  0  0  0  0  0  0  0  0
   36.6390   26.2470   33.0380 N   0  0  0  0  0  0  0  0  0  0  0  0
   37.0440   27.3010   33.7240 C   0  0  0  0  0  0  0  0  0  0  0  0
   36.8800   28.5450   33.2420 N   0  0  0  0  0  0  0  0  0  0  0  0
   36.1490   29.7150   31.6290 H   0  0  0  0  0  0  0  0  0  0  0  0
   35.3790   27.7400   30.3210 H   0  0  0  0  0  0  0  0  0  0  0  0
   35.6000   25.2150   31.0700 C   0  0  0  0  0  0  0  0  0  0  0  0
   34.5060   25.2590   30.4620 O   0  0  0  0  0  0  0  0  0  0  0  0
   36.3660   23.9800   30.9860 C   0  0  0  0  0  0  0  0  0  0  0  0
   35.7510   22.8130   31.3880 C   0  0  0  0  0  0  0  0  0  0  0  0
   36.3980   21.5730   31.3470 C   0  0  0  0  0  0  0  0  0  0  0  0
   37.6940   21.5120   30.8900 C   0  0  0  0  0  0  0  0  0  0  0  0
   38.2100   20.5760   30.8500 H   0  0  0  0  0  0  0  0  0  0  0  0
   38.2560   22.7060   30.5030 C   0  0  0  0  0  0  0  0  0  0  0  0
   37.6300   23.9100   30.5410 N   0  0  0  0  0  0  0  0  0  0  0  0
  1  2  1  0  0  0  0
  1  3  1  0  0  0  0
  4  1  1  0  0  0  0
  4 13  1  0  0  0  0
  5  4  2  0  0  0  0
  6  5  1  0  0  0  0
  6  7  2  0  0  0  0
  7  8  1  0  0  0  0
  8 13  2  0  0  0  0
  8  9  1  0  0  0  0
  9 10  2  0  0  0  0
 10 11  1  0  0  0  0
 10 18  1  0  0  0  0
 11 19  1  0  0  0  0
 12 20  1  0  0  0  0
 12 11  2  0  0  0  0
 13 12  1  0  0  0  0
 14  5  1  0  0  0  0
 15  6  1  0  0  0  0
 16  7  1  0  0  0  0
 17  9  1  0  0  0  0
 21 26  1  0  0  0  0
 22 23  1  0  0  0  0
 22 21  2  0  0  0  0
 23 24  2  0  0  0  0
 24 25  1  0  0  0  0
 25  1  1  0  0  0  0
 26 25  2  0  0  0  0
 27 21  1  0  0  0  0
 28 22  1  0  0  0  0
 29 23  1  0  0  0  0
 30 29  2  0  0  0  0
 31 29  1  0  0  0  0
 31 32  1  0  0  0  0
 33 32  2  0  0  0  0
 34 33  1  0  0  0  0
 35 34  1  0  0  0  0
 36 37  1  0  0  0  0
 36 34  2  0  0  0  0
 37 31  2  0  0  0  0
M  END
>  <minimizedAffinity>
-6.21494007

>  <minimizedRMSD>
2.07642078

$$$$
