
 OpenBabel03262519543D

 30 33  0  0  1  0  0  0  0  0999 V2000
   38.1130   23.7770   34.5730 C   0  0  0  0  0  0  0  0  0  0  0  0
   38.2930   24.9790   33.8890 C   0  0  0  0  0  0  0  0  0  0  0  0
   37.8530   24.7080   32.6290 N   0  0  0  0  0  0  0  0  0  0  0  0
   37.4500   23.4450   32.5910 C   0  0  0  0  0  0  0  0  0  0  0  0
   37.5990   22.8400   33.7840 N   0  0  0  0  0  0  0  0  0  0  0  0
   38.6960   25.9060   34.2980 H   0  0  0  0  0  0  0  0  0  0  0  0
   37.0710   23.0930   31.6360 H   0  0  0  0  0  0  0  0  0  0  0  0
   38.4420   23.5600   35.9740 C   0  0  0  0  0  0  0  0  0  0  0  0
   39.6510   22.9640   36.3360 C   0  0  0  0  0  0  0  0  0  0  0  0
   39.9250   22.7740   37.7010 C   0  0  0  0  0  0  0  0  0  0  0  0
   38.9980   23.1820   38.5900 N   0  0  0  0  0  0  0  0  0  0  0  0
   37.8350   23.7570   38.2200 C   0  0  0  0  0  0  0  0  0  0  0  0
   37.5470   23.9500   36.9190 N   0  0  0  0  0  0  0  0  0  0  0  0
   40.3700   22.6510   35.5740 H   0  0  0  0  0  0  0  0  0  0  0  0
   40.8530   22.3150   38.0250 H   0  0  0  0  0  0  0  0  0  0  0  0
   37.1700   24.0430   39.0320 H   0  0  0  0  0  0  0  0  0  0  0  0
   37.2440   21.4660   34.0330 C   0  0  1  0  0  0  0  0  0  0  0  0
   36.0010   21.0750   34.7050 C   0  0  0  0  0  0  0  0  0  0  0  0
   36.0630   21.0060   33.2030 C   0  0  2  0  0  0  0  0  0  0  0  0
   38.1140   20.7730   34.0890 H   0  0  0  0  0  0  0  0  0  0  0  0
   36.0110   20.1480   35.3140 H   0  0  0  0  0  0  0  0  0  0  0  0
   35.3140   21.8330   35.1520 H   0  0  0  0  0  0  0  0  0  0  0  0
   35.4440   21.7710   32.6640 H   0  0  0  0  0  0  0  0  0  0  0  0
   36.1660   19.7790   32.5260 N   0  0  0  0  0  0  0  0  0  0  0  0
   35.2020   18.7890   32.7770 C   0  0  0  0  0  2  0  0  0  0  0  0
   35.6300   17.4010   32.4360 C   0  0  0  0  0  2  0  0  0  0  0  0
   36.5170   17.3110   31.2290 C   0  0  0  0  0  3  0  0  0  0  0  0
   36.8820   16.2850   31.1240 H   0  0  0  0  0  0  0  0  0  0  0  0
   37.6290   18.3190   31.3490 C   0  0  0  0  0  2  0  0  0  0  0  0
   36.9560   19.6950   31.3800 C   0  0  0  0  0  2  0  0  0  0  0  0
  1  8  1  0  0  0  0
  2  6  1  0  0  0  0
  2  1  2  0  0  0  0
  3  2  1  0  0  0  0
  4  3  2  0  0  0  0
  4  5  1  0  0  0  0
  5 17  1  0  0  0  0
  5  1  1  0  0  0  0
  7  4  1  0  0  0  0
  8  9  2  0  0  0  0
  8 13  1  0  0  0  0
  9 10  1  0  0  0  0
 10 15  1  0  0  0  0
 10 11  2  0  0  0  0
 12 11  1  0  0  0  0
 12 16  1  0  0  0  0
 13 12  2  0  0  0  0
 14  9  1  0  0  0  0
 17 20  1  1  0  0  0
 17 18  1  0  0  0  0
 18 22  1  0  0  0  0
 18 21  1  0  0  0  0
 19 23  1  6  0  0  0
 19 17  1  0  0  0  0
 19 18  1  0  0  0  0
 24 25  1  0  0  0  0
 24 19  1  0  0  0  0
 26 25  1  0  0  0  0
 27 29  1  0  0  0  0
 27 26  1  0  0  0  0
 28 27  1  0  0  0  0
 29 30  1  0  0  0  0
 30 24  1  0  0  0  0
M  END
>  <minimizedAffinity>
-4.8419795

>  <minimizedRMSD>
0.728436351

$$$$
