
 OpenBabel03262519463D

 38 41  0  0  1  0  0  0  0  0999 V2000
   37.3750   25.6850   32.9350 N   0  0  0  0  0  0  0  0  0  0  0  0
   36.8450   24.5990   32.3710 C   0  0  0  0  0  0  0  0  0  0  0  0
   35.8360   24.8670   31.4700 C   0  0  0  0  0  0  0  0  0  0  0  0
   35.7420   26.1980   31.4820 N   0  0  0  0  0  0  0  0  0  0  0  0
   36.6690   26.6880   32.3630 C   0  0  0  0  0  0  0  0  0  0  0  0
   37.2000   23.5850   32.6220 H   0  0  0  0  0  0  0  0  0  0  0  0
   35.2960   24.1070   30.9220 H   0  0  0  0  0  0  0  0  0  0  0  0
   36.7960   28.1870   32.5430 C   0  0  1  0  0  0  0  0  0  0  0  0
   35.9170   29.0210   31.6840 C   0  0  0  0  0  0  0  0  0  0  0  0
   35.5920   28.8910   33.1310 C   0  0  2  0  0  0  0  0  0  0  0  0
   37.7390   28.5070   32.9940 H   0  0  0  0  0  0  0  0  0  0  0  0
   35.2440   28.4870   30.9680 H   0  0  0  0  0  0  0  0  0  0  0  0
   36.4520   29.8430   31.2180 H   0  0  0  0  0  0  0  0  0  0  0  0
   34.7170   28.2750   33.3870 H   0  0  0  0  0  0  0  0  0  0  0  0
   35.7340   30.1070   33.8450 N   0  0  0  0  0  0  0  0  0  0  0  0
   35.5780   31.3100   33.0560 C   0  0  0  0  0  0  0  0  0  0  0  0
   35.8370   32.4960   33.9460 C   0  0  0  0  0  0  0  0  0  0  0  0
   36.3280   32.0870   35.1590 O   0  0  0  0  0  0  0  0  0  0  0  0
   35.3770   31.3240   35.8800 C   0  0  0  0  0  0  0  0  0  0  0  0
   34.7740   30.2740   34.9230 C   0  0  0  0  0  0  0  0  0  0  0  0
   38.3860   25.9200   33.8880 C   0  0  0  0  0  0  0  0  0  0  0  0
   39.1260   25.0780   33.8000 H   0  0  0  0  0  0  0  0  0  0  0  0
   38.9790   26.8420   33.6210 H   0  0  0  0  0  0  0  0  0  0  0  0
   37.8820   25.9650   35.2830 C   0  0  1  0  0  0  0  0  0  0  0  0
   36.7670   25.8360   35.2920 H   0  0  0  0  0  0  0  0  0  0  0  0
   38.4790   23.5940   38.1700 C   0  0  0  0  0  0  0  0  0  0  0  0
   37.9010   24.6390   37.4390 C   0  0  0  0  0  0  0  0  0  0  0  0
   38.4340   24.8890   36.1400 C   0  0  0  0  0  0  0  0  0  0  0  0
   39.4740   24.1050   35.6670 N   0  0  0  0  0  0  0  0  0  0  0  0
   39.9900   23.1240   36.3970 C   0  0  0  0  0  0  0  0  0  0  0  0
   39.4960   22.8590   37.6550 N   0  0  0  0  0  0  0  0  0  0  0  0
   38.1060   23.3730   39.1580 H   0  0  0  0  0  0  0  0  0  0  0  0
   37.0980   25.2390   37.8130 H   0  0  0  0  0  0  0  0  0  0  0  0
   40.7950   22.5310   36.0090 H   0  0  0  0  0  0  0  0  0  0  0  0
   38.1860   27.3240   35.9050 C   0  0  0  0  0  0  0  0  0  0  0  0
   39.2200   27.2530   36.3470 H   0  0  0  0  0  0  0  0  0  0  0  0
   38.1420   28.1520   35.1950 H   0  0  0  0  0  0  0  0  0  0  0  0
   37.5210   27.4200   36.7890 H   0  0  0  0  0  0  0  0  0  0  0  0
  1 21  1  0  0  0  0
  2  6  1  0  0  0  0
  2  1  1  0  0  0  0
  3  4  1  0  0  0  0
  3  2  2  0  0  0  0
  4  5  2  0  0  0  0
  5  8  1  0  0  0  0
  5  1  1  0  0  0  0
  7  3  1  0  0  0  0
  8 11  1  1  0  0  0
  8 10  1  0  0  0  0
  9  8  1  0  0  0  0
  9 10  1  0  0  0  0
 10 14  1  1  0  0  0
 10 15  1  0  0  0  0
 12  9  1  0  0  0  0
 13  9  1  0  0  0  0
 15 20  1  0  0  0  0
 16 15  1  0  0  0  0
 16 17  1  0  0  0  0
 17 18  1  0  0  0  0
 18 19  1  0  0  0  0
 20 19  1  0  0  0  0
 21 24  1  0  0  0  0
 22 21  1  0  0  0  0
 23 21  1  0  0  0  0
 24 25  1  6  0  0  0
 24 35  1  0  0  0  0
 24 28  1  0  0  0  0
 26 32  1  0  0  0  0
 27 33  1  0  0  0  0
 27 26  2  0  0  0  0
 28 27  1  0  0  0  0
 29 28  2  0  0  0  0
 29 30  1  0  0  0  0
 30 31  2  0  0  0  0
 31 26  1  0  0  0  0
 34 30  1  0  0  0  0
 35 36  1  0  0  0  0
 35 38  1  0  0  0  0
 37 35  1  0  0  0  0
M  END
>  <minimizedAffinity>
-5.37177801

>  <minimizedRMSD>
0.59569788

$$$$
