
 OpenBabel03262512103D

 33 35  0  0  1  0  0  0  0  0999 V2000
   37.8430   22.6750   34.1420 N   0  0  0  0  0  0  0  0  0  0  0  0
   38.8630   21.9960   34.9520 C   0  0  0  0  0  0  0  0  0  0  0  0
   40.0240   22.9160   34.8250 C   0  0  1  0  0  0  0  0  0  0  0  0
   39.5400   24.1360   34.0820 C   0  0  0  0  0  0  0  0  0  0  0  0
   38.0720   24.0460   34.4940 C   0  0  0  0  0  0  0  0  0  0  0  0
   38.5120   21.7750   35.9590 H   0  0  0  0  0  0  0  0  0  0  0  0
   39.1510   21.0220   34.4840 H   0  0  0  0  0  0  0  0  0  0  0  0
   40.9040   22.4320   34.3280 H   0  0  0  0  0  0  0  0  0  0  0  0
   39.5950   24.0360   32.9900 H   0  0  0  0  0  0  0  0  0  0  0  0
   40.0230   25.0350   34.5060 H   0  0  0  0  0  0  0  0  0  0  0  0
   37.5180   24.6760   33.7520 H   0  0  0  0  0  0  0  0  0  0  0  0
   37.8800   24.3210   35.5240 H   0  0  0  0  0  0  0  0  0  0  0  0
   36.8970   22.0950   33.2650 C   0  0  0  0  0  0  0  0  0  0  0  0
   36.1490   20.9650   33.5880 C   0  0  0  0  0  0  0  0  0  0  0  0
   35.2420   20.4500   32.6700 C   0  0  0  0  0  0  0  0  0  0  0  0
   35.1430   21.1070   31.4770 N   0  0  0  0  0  0  0  0  0  0  0  0
   35.8660   22.1850   31.1880 C   0  0  0  0  0  0  0  0  0  0  0  0
   36.7370   22.6820   32.0650 N   0  0  0  0  0  0  0  0  0  0  0  0
   36.2950   20.5190   34.5500 H   0  0  0  0  0  0  0  0  0  0  0  0
   34.6610   19.5840   32.8930 H   0  0  0  0  0  0  0  0  0  0  0  0
   35.7120   22.6340   30.2240 H   0  0  0  0  0  0  0  0  0  0  0  0
   40.3970   23.3470   36.2010 C   0  0  2  0  0  0  0  0  0  0  0  0
   41.4870   22.6880   36.9290 C   0  0  0  0  0  0  0  0  0  0  0  0
   40.0260   22.3720   37.2540 C   0  0  1  0  0  0  0  0  0  0  0  0
   40.2000   24.4140   36.4860 H   0  0  0  0  0  0  0  0  0  0  0  0
   42.0840   21.9290   36.3850 H   0  0  0  0  0  0  0  0  0  0  0  0
   42.0410   23.2380   37.7100 H   0  0  0  0  0  0  0  0  0  0  0  0
   39.7310   21.3380   37.0270 H   0  0  0  0  0  0  0  0  0  0  0  0
   39.5080   22.8710   38.5140 N   0  0  0  0  0  0  0  0  0  0  0  0
   40.0660   23.7180   38.7700 H   0  0  0  0  0  0  0  0  0  0  0  0
   38.1280   23.2010   38.5370 C   0  0  0  0  0  0  0  0  0  0  0  0
   37.9920   24.7020   38.6590 C   0  0  0  0  0  0  0  0  0  0  0  0
   36.9360   24.9720   38.4880 H   0  0  0  0  0  0  0  0  0  0  0  0
  1  5  1  0  0  0  0
  1  2  1  0  0  0  0
  2  6  1  0  0  0  0
  3  8  1  6  0  0  0
  3  2  1  0  0  0  0
  3 22  1  0  0  0  0
  4  5  1  0  0  0  0
  4 10  1  0  0  0  0
  4  3  1  0  0  0  0
  5 12  1  0  0  0  0
  7  2  1  0  0  0  0
  9  4  1  0  0  0  0
 11  5  1  0  0  0  0
 13 14  1  0  0  0  0
 13  1  1  0  0  0  0
 14 19  1  0  0  0  0
 15 20  1  0  0  0  0
 15 14  2  0  0  0  0
 16 15  1  0  0  0  0
 17 16  2  0  0  0  0
 17 18  1  0  0  0  0
 18 13  2  0  0  0  0
 21 17  1  0  0  0  0
 22 25  1  1  0  0  0
 22 23  1  0  0  0  0
 22 24  1  0  0  0  0
 23 24  1  0  0  0  0
 23 27  1  0  0  0  0
 24 28  1  6  0  0  0
 24 29  1  0  0  0  0
 26 23  1  0  0  0  0
 29 31  1  0  0  0  0
 29 30  1  0  0  0  0
 31 32  1  0  0  0  0
 33 32  1  0  0  0  0
M  END
>  <minimizedAffinity>
-4.45138884

>  <minimizedRMSD>
1.45379126

$$$$
