
 OpenBabel03262519073D

 34 37  0  0  1  0  0  0  0  0999 V2000
   37.3520   26.2790   33.6190 C   0  0  0  0  0  0  0  0  0  0  0  0
   38.3770   26.5930   33.9550 H   0  0  0  0  0  0  0  0  0  0  0  0
   36.7930   26.1030   34.5630 H   0  0  0  0  0  0  0  0  0  0  0  0
   36.7620   27.4740   32.9830 C   0  0  0  0  0  0  0  0  0  0  0  0
   36.5680   27.8030   31.6800 C   0  0  0  0  0  0  0  0  0  0  0  0
   36.0040   28.9530   31.2070 C   0  0  0  0  0  0  0  0  0  0  0  0
   35.5960   29.8570   32.1610 C   0  0  0  0  0  0  0  0  0  0  0  0
   35.7880   29.5320   33.4990 C   0  0  0  0  0  0  0  0  0  0  0  0
   36.3480   28.3880   33.9090 N   0  0  0  0  0  0  0  0  0  0  0  0
   36.9270   27.0160   31.0030 H   0  0  0  0  0  0  0  0  0  0  0  0
   35.9140   29.0830   30.1570 H   0  0  0  0  0  0  0  0  0  0  0  0
   35.1390   30.7920   31.8410 H   0  0  0  0  0  0  0  0  0  0  0  0
   35.3420   30.5140   34.4420 N   0  0  0  0  0  0  0  0  0  0  0  0
   35.9870   30.6560   35.7040 C   0  0  0  0  0  0  0  0  0  0  0  0
   35.3840   31.8720   36.3800 C   0  0  0  0  0  0  0  0  0  0  0  0
   34.0070   31.7200   36.4810 O   0  0  0  0  0  0  0  0  0  0  0  0
   33.3720   31.7150   35.2570 C   0  0  0  0  0  0  0  0  0  0  0  0
   34.2220   31.3610   34.0890 C   0  0  0  0  0  0  0  0  0  0  0  0
   37.9230   23.7430   33.1560 C   0  0  2  0  0  0  0  0  0  0  0  0
   38.6680   24.6570   32.2490 C   0  0  0  0  0  0  0  0  0  0  0  0
   37.3320   25.0570   32.7980 C   0  0  2  0  0  0  0  0  0  0  0  0
   37.3270   22.8760   32.8250 H   0  0  0  0  0  0  0  0  0  0  0  0
   38.7260   24.2940   31.1810 H   0  0  0  0  0  0  0  0  0  0  0  0
   39.6070   25.1240   32.5710 H   0  0  0  0  0  0  0  0  0  0  0  0
   36.5150   25.0550   32.0190 H   0  0  0  0  0  0  0  0  0  0  0  0
   40.3010   23.5940   35.9470 C   0  0  0  0  0  0  0  0  0  0  0  0
   39.5240   23.1900   37.0570 C   0  0  0  0  0  0  0  0  0  0  0  0
   38.1340   22.9760   36.7900 C   0  0  0  0  0  0  0  0  0  0  0  0
   37.6700   23.1680   35.5330 N   0  0  0  0  0  0  0  0  0  0  0  0
   38.4900   23.5630   34.5070 C   0  0  0  0  0  0  0  0  0  0  0  0
   39.8250   23.7780   34.7170 N   0  0  0  0  0  0  0  0  0  0  0  0
   41.3540   23.7620   36.1190 H   0  0  0  0  0  0  0  0  0  0  0  0
   39.9610   23.0560   38.0340 H   0  0  0  0  0  0  0  0  0  0  0  0
   37.5370   22.6730   37.6150 H   0  0  0  0  0  0  0  0  0  0  0  0
  1  2  1  0  0  0  0
  1  3  1  0  0  0  0
  4  1  1  0  0  0  0
  4  9  1  0  0  0  0
  5  4  2  0  0  0  0
  6  5  1  0  0  0  0
  6  7  2  0  0  0  0
  7  8  1  0  0  0  0
  8  9  2  0  0  0  0
  8 13  1  0  0  0  0
 10  5  1  0  0  0  0
 11  6  1  0  0  0  0
 12  7  1  0  0  0  0
 13 14  1  0  0  0  0
 14 15  1  0  0  0  0
 15 16  1  0  0  0  0
 17 16  1  0  0  0  0
 18 13  1  0  0  0  0
 18 17  1  0  0  0  0
 19 22  1  6  0  0  0
 19 30  1  0  0  0  0
 20 24  1  0  0  0  0
 20 21  1  0  0  0  0
 20 19  1  0  0  0  0
 21 25  1  6  0  0  0
 21 19  1  0  0  0  0
 21  1  1  0  0  0  0
 23 20  1  0  0  0  0
 26 32  1  0  0  0  0
 26 27  1  0  0  0  0
 27 33  1  0  0  0  0
 28 27  2  0  0  0  0
 28 34  1  0  0  0  0
 29 28  1  0  0  0  0
 30 31  1  0  0  0  0
 30 29  2  0  0  0  0
 31 26  2  0  0  0  0
M  END
>  <minimizedAffinity>
-4.72626638

>  <minimizedRMSD>
5.29411459

$$$$
