
 OpenBabel03262518243D

 25 27  0  0  0  0  0  0  0  0999 V2000
   39.8100   22.5350   38.2390 N   0  0  0  0  0  0  0  0  0  0  0  0
   38.6760   23.1980   37.9960 N   0  0  0  0  0  0  0  0  0  0  0  0
   38.7520   23.7780   36.7740 C   0  0  0  0  0  0  0  0  0  0  0  0
   39.9790   23.4730   36.2190 C   0  0  0  0  0  0  0  0  0  0  0  0
   40.5980   22.7000   37.1700 C   0  0  0  0  0  0  0  0  0  0  0  0
   39.9400   22.0280   39.1250 H   0  0  0  0  0  0  0  0  0  0  0  0
   40.3000   23.8110   35.2440 H   0  0  0  0  0  0  0  0  0  0  0  0
   41.9030   22.1460   37.0350 N   0  0  0  0  0  0  0  0  0  0  0  0
   42.9860   22.8930   36.4240 C   0  0  0  0  0  0  0  0  0  0  0  0
   43.3800   22.0840   35.1800 C   0  0  0  0  0  0  0  0  0  0  0  0
   42.8010   20.8390   35.1500 O   0  0  0  0  0  0  0  0  0  0  0  0
   42.8760   20.1130   36.3090 C   0  0  0  0  0  0  0  0  0  0  0  0
   42.2120   20.8090   37.5020 C   0  0  0  0  0  0  0  0  0  0  0  0
   37.6830   24.5430   36.2630 O   0  0  0  0  0  0  0  0  0  0  0  0
   37.8490   25.8730   35.9450 C   0  0  0  0  0  0  0  0  0  0  0  0
   38.3960   26.6800   36.7310 O   0  0  0  0  0  0  0  0  0  0  0  0
   37.3760   26.3750   34.6510 C   0  0  0  0  0  0  0  0  0  0  0  0
   37.4690   25.5300   33.5480 C   0  0  0  0  0  0  0  0  0  0  0  0
   37.0200   26.0000   32.3070 C   0  0  0  0  0  0  0  0  0  0  0  0
   36.5200   27.2610   32.2750 N   0  0  0  0  0  0  0  0  0  0  0  0
   36.4420   28.0460   33.3410 C   0  0  0  0  0  0  0  0  0  0  0  0
   36.8650   27.6140   34.5310 N   0  0  0  0  0  0  0  0  0  0  0  0
   37.8850   24.5360   33.6780 H   0  0  0  0  0  0  0  0  0  0  0  0
   37.0840   25.3550   31.4330 H   0  0  0  0  0  0  0  0  0  0  0  0
   36.0170   29.0430   33.1760 H   0  0  0  0  0  0  0  0  0  0  0  0
  1  6  1  0  0  0  0
  2  1  1  0  0  0  0
  3  2  2  0  0  0  0
  4  3  1  0  0  0  0
  4  5  2  0  0  0  0
  5  1  1  0  0  0  0
  7  4  1  0  0  0  0
  8  5  1  0  0  0  0
  8 13  1  0  0  0  0
  9  8  1  0  0  0  0
 10  9  1  0  0  0  0
 11 10  1  0  0  0  0
 11 12  1  0  0  0  0
 12 13  1  0  0  0  0
 14  3  1  0  0  0  0
 15 14  1  0  0  0  0
 15 16  2  0  0  0  0
 17 15  1  0  0  0  0
 18 23  1  0  0  0  0
 18 17  2  0  0  0  0
 19 18  1  0  0  0  0
 20 19  2  0  0  0  0
 20 21  1  0  0  0  0
 21 22  2  0  0  0  0
 22 17  1  0  0  0  0
 24 19  1  0  0  0  0
 25 21  1  0  0  0  0
M  END
>  <minimizedAffinity>
-4.87314129

>  <minimizedRMSD>
1.06205428

$$$$
