
 OpenBabel03262519543D

 29 32  0  0  1  0  0  0  0  0999 V2000
   38.1640   24.2530   34.8000 C   0  0  0  0  0  0  0  0  0  0  0  0
   38.1760   25.5400   34.2830 C   0  0  0  0  0  0  0  0  0  0  0  0
   37.8290   25.3800   32.9720 N   0  0  0  0  0  0  0  0  0  0  0  0
   37.6340   24.0970   32.7560 C   0  0  0  0  0  0  0  0  0  0  0  0
   37.8320   23.3610   33.8680 N   0  0  0  0  0  0  0  0  0  0  0  0
   38.4200   26.4080   34.8760 H   0  0  0  0  0  0  0  0  0  0  0  0
   37.3480   23.7800   31.7560 H   0  0  0  0  0  0  0  0  0  0  0  0
   38.4700   23.8970   36.1770 C   0  0  0  0  0  0  0  0  0  0  0  0
   39.6500   23.2250   36.4850 C   0  0  0  0  0  0  0  0  0  0  0  0
   39.9050   22.9010   37.8330 C   0  0  0  0  0  0  0  0  0  0  0  0
   38.9880   23.2610   38.7480 N   0  0  0  0  0  0  0  0  0  0  0  0
   37.8470   23.9140   38.4260 C   0  0  0  0  0  0  0  0  0  0  0  0
   37.5850   24.2330   37.1430 N   0  0  0  0  0  0  0  0  0  0  0  0
   40.3280   22.9730   35.7040 H   0  0  0  0  0  0  0  0  0  0  0  0
   40.8170   22.3770   38.0990 H   0  0  0  0  0  0  0  0  0  0  0  0
   37.1650   24.1630   39.2460 H   0  0  0  0  0  0  0  0  0  0  0  0
   37.6860   21.9250   33.9150 C   0  0  1  0  0  0  0  0  0  0  0  0
   36.5470   21.2670   34.5550 C   0  0  0  0  0  0  0  0  0  0  0  0
   36.5240   21.4330   33.0570 C   0  0  2  0  0  0  0  0  0  0  0  0
   38.6590   21.3860   33.7920 H   0  0  0  0  0  0  0  0  0  0  0  0
   36.7100   20.2680   35.0000 H   0  0  0  0  0  0  0  0  0  0  0  0
   35.8740   21.9040   35.1820 H   0  0  0  0  0  0  0  0  0  0  0  0
   35.7720   22.1710   32.6920 H   0  0  0  0  0  0  0  0  0  0  0  0
   36.6370   20.2010   32.3470 N   0  0  0  0  0  0  0  0  0  0  0  0
   36.4910   20.2690   30.9290 C   0  0  0  0  0  0  0  0  0  0  0  0
   36.7250   18.8360   30.4330 C   0  0  0  0  0  0  0  0  0  0  0  0
   35.8170   17.9410   30.9950 O   0  0  0  0  0  0  0  0  0  0  0  0
   35.9960   17.9250   32.3700 C   0  0  0  0  0  0  0  0  0  0  0  0
   35.6090   19.3120   32.8590 C   0  0  0  0  0  0  0  0  0  0  0  0
  1  8  1  0  0  0  0
  2  1  2  0  0  0  0
  2  6  1  0  0  0  0
  3  2  1  0  0  0  0
  4  3  2  0  0  0  0
  4  5  1  0  0  0  0
  5 17  1  0  0  0  0
  5  1  1  0  0  0  0
  7  4  1  0  0  0  0
  8  9  2  0  0  0  0
  8 13  1  0  0  0  0
  9 10  1  0  0  0  0
 10 15  1  0  0  0  0
 10 11  2  0  0  0  0
 12 11  1  0  0  0  0
 12 16  1  0  0  0  0
 13 12  2  0  0  0  0
 14  9  1  0  0  0  0
 17 20  1  6  0  0  0
 17 18  1  0  0  0  0
 18 21  1  0  0  0  0
 18 22  1  0  0  0  0
 19 23  1  6  0  0  0
 19 17  1  0  0  0  0
 19 18  1  0  0  0  0
 24 29  1  0  0  0  0
 24 19  1  0  0  0  0
 25 24  1  0  0  0  0
 26 25  1  0  0  0  0
 26 27  1  0  0  0  0
 27 28  1  0  0  0  0
 28 29  1  0  0  0  0
M  END
>  <minimizedAffinity>
-4.60164881

>  <minimizedRMSD>
1.34293425

$$$$
