
     RDKit          3D

 37 40  0  0  0  0  0  0  0  0999 V2000
   38.0349   23.4735   34.6228 C   0  0  0  0  0  0  0  0  0  0  0  0
   38.2624   24.5622   33.7927 C   0  0  0  0  0  0  0  0  0  0  0  0
   37.7632   24.1719   32.5830 N   0  0  0  0  0  0  0  0  0  0  0  0
   37.2868   22.9533   32.7121 C   0  0  0  0  0  0  0  0  0  0  0  0
   37.4362   22.4821   33.9658 N   0  0  0  0  0  0  0  0  0  0  0  0
   38.3944   23.4007   36.0310 C   0  0  0  0  0  0  0  0  0  0  0  0
   39.5928   22.8132   36.4226 C   0  0  0  0  0  0  0  0  0  0  0  0
   39.9002   22.7646   37.7978 C   0  0  0  0  0  0  0  0  0  0  0  0
   39.0095   23.2933   38.6561 N   0  0  0  0  0  0  0  0  0  0  0  0
   37.8492   23.8602   38.2531 C   0  0  0  0  0  0  0  0  0  0  0  0
   37.5376   23.9162   36.9434 N   0  0  0  0  0  0  0  0  0  0  0  0
   37.0016   21.1702   34.3874 C   0  0  1  0  0  0  0  0  0  0  0  0
   35.8472   20.9616   35.2597 C   0  0  0  0  0  0  0  0  0  0  0  0
   35.6590   20.7820   33.7765 C   0  0  2  0  0  0  0  0  0  0  0  0
   38.7373   25.4688   34.1317 H   0  0  0  0  0  0  0  0  0  0  0  0
   36.8446   22.4757   31.8401 H   0  0  0  0  0  0  0  0  0  0  0  0
   40.2475   22.4159   35.6827 H   0  0  0  0  0  0  0  0  0  0  0  0
   40.8280   22.3120   38.1292 H   0  0  0  0  0  0  0  0  0  0  0  0
   37.1918   24.2621   39.0320 H   0  0  0  0  0  0  0  0  0  0  0  0
   37.8159   20.4040   34.3280 H   0  0  0  0  0  0  0  0  0  0  0  0
   35.8573   20.0816   35.9295 H   0  0  0  0  0  0  0  0  0  0  0  0
   35.4120   21.8659   35.7574 H   0  0  0  0  0  0  0  0  0  0  0  0
   35.0353   21.5715   33.2963 H   0  0  0  0  0  0  0  0  0  0  0  0
   35.4163   19.4291   33.3943 N   0  0  0  0  0  0  0  0  0  0  0  0
   35.1196   19.2008   32.0166 C   0  0  0  0  0  0  0  0  0  0  0  0
   34.9766   17.6775   31.8851 C   0  0  0  0  0  0  0  0  0  0  0  0
   33.9712   17.1813   32.7113 O   0  0  0  0  0  0  0  0  0  0  0  0
   34.3051   17.4406   34.0318 C   0  0  0  0  0  0  0  0  0  0  0  0
   34.2888   18.9540   34.1782 C   0  0  0  0  0  0  0  0  0  0  0  0
   34.1114   19.6091   31.7180 H   0  0  0  0  0  0  0  0  0  0  0  0
   35.8871   19.5101   31.3027 H   0  0  0  0  0  0  0  0  0  0  0  0
   35.9299   17.1968   32.2371 H   0  0  0  0  0  0  0  0  0  0  0  0
   34.8095   17.4132   30.8281 H   0  0  0  0  0  0  0  0  0  0  0  0
   35.3331   17.0507   34.2567 H   0  0  0  0  0  0  0  0  0  0  0  0
   33.6015   17.0199   34.7508 H   0  0  0  0  0  0  0  0  0  0  0  0
   33.3409   19.3319   33.7400 H   0  0  0  0  0  0  0  0  0  0  0  0
   34.3425   19.2630   35.2410 H   0  0  0  0  0  0  0  0  0  0  0  0
  1  6  1  0
  2  1  2  0
  3  4  2  0
  3  2  1  0
  4  5  1  0
  5 12  1  0
  5  1  1  0
  6  7  2  0
  6 11  1  0
  7  8  1  0
  8  9  2  0
 10  9  1  0
 11 10  2  0
 12 13  1  0
 14 12  1  0
 14 13  1  0
  2 15  1  0
  4 16  1  0
  7 17  1  0
  8 18  1  0
 10 19  1  0
 12 20  1  1
 13 21  1  0
 13 22  1  0
 14 23  1  6
 24 25  1  0
 25 26  1  0
 26 27  1  0
 27 28  1  0
 28 29  1  0
 29 24  1  0
 25 30  1  0
 25 31  1  0
 26 32  1  0
 26 33  1  0
 28 34  1  0
 28 35  1  0
 29 36  1  0
 29 37  1  0
 14 24  1  0
M  ISO  8  15  14  16  14  17  14  18  14  19  14  20  13  21  13  22  13
M  ISO  1  23  13
M  END
>  <DihAtoms>  (1) 
11,13,23,24

>  <DihDeg>  (1) 
-59.999234939622546

$$$$
