
 OpenBabel03262519193D

 26 29  0  0  0  0  0  0  0  0999 V2000
   37.5190   25.1910   33.7260 C   0  0  0  0  0  0  0  0  0  0  0  0
   37.8740   25.5250   35.0500 C   0  0  0  0  0  0  0  0  0  0  0  0
   37.8300   26.8570   35.4060 C   0  0  0  0  0  0  0  0  0  0  0  0
   37.4510   27.8010   34.4910 N   0  0  0  0  0  0  0  0  0  0  0  0
   37.1150   27.4290   33.2140 C   0  0  0  0  0  0  0  0  0  0  0  0
   37.1500   26.1480   32.8480 N   0  0  0  0  0  0  0  0  0  0  0  0
   38.0980   27.1430   36.4150 H   0  0  0  0  0  0  0  0  0  0  0  0
   36.8480   28.2880   32.6450 H   0  0  0  0  0  0  0  0  0  0  0  0
   37.5370   23.8410   33.2730 N   0  0  0  0  0  0  0  0  0  0  0  0
   37.8960   22.6500   34.0340 C   0  0  0  0  0  0  0  0  0  0  0  0
   37.1810   21.4460   33.5060 C   0  0  0  0  0  0  0  0  0  0  0  0
   35.9820   21.6990   32.8810 O   0  0  0  0  0  0  0  0  0  0  0  0
   36.0620   22.5480   31.7970 C   0  0  0  0  0  0  0  0  0  0  0  0
   37.1570   23.5580   31.8870 C   0  0  0  0  0  0  0  0  0  0  0  0
   38.2550   24.5430   35.9530 N   0  0  0  0  0  0  0  0  0  0  0  0
   37.4650   23.9530   36.8510 C   0  0  0  0  0  0  0  0  0  0  0  0
   38.1360   23.0350   37.5810 N   0  0  0  0  0  0  0  0  0  0  0  0
   39.4070   23.0500   37.1210 C   0  0  0  0  0  0  0  0  0  0  0  0
   40.5470   22.3590   37.4490 C   0  0  0  0  0  0  0  0  0  0  0  0
   41.7360   22.5420   36.8390 N   0  0  0  0  0  0  0  0  0  0  0  0
   41.7510   23.4700   35.8570 C   0  0  0  0  0  0  0  0  0  0  0  0
   40.6470   24.1440   35.5350 N   0  0  0  0  0  0  0  0  0  0  0  0
   39.4660   23.9900   36.1100 C   0  0  0  0  0  0  0  0  0  0  0  0
   36.4020   24.1820   36.9830 H   0  0  0  0  0  0  0  0  0  0  0  0
   40.5390   21.6130   38.2360 H   0  0  0  0  0  0  0  0  0  0  0  0
   42.6000   23.7600   35.2550 H   0  0  0  0  0  0  0  0  0  0  0  0
  1  2  1  0  0  0  0
  2  3  2  0  0  0  0
  2 15  1  0  0  0  0
  3  7  1  0  0  0  0
  4  3  1  0  0  0  0
  5  4  2  0  0  0  0
  6  5  1  0  0  0  0
  6  1  2  0  0  0  0
  8  5  1  0  0  0  0
  9  1  1  0  0  0  0
  9 10  1  0  0  0  0
 11 10  1  0  0  0  0
 12 11  1  0  0  0  0
 13 14  1  0  0  0  0
 13 12  1  0  0  0  0
 14  9  1  0  0  0  0
 15 23  1  0  0  0  0
 15 16  1  0  0  0  0
 16 24  1  0  0  0  0
 16 17  2  0  0  0  0
 18 19  1  0  0  0  0
 18 17  1  0  0  0  0
 19 25  1  0  0  0  0
 20 19  2  0  0  0  0
 21 20  1  0  0  0  0
 22 21  2  0  0  0  0
 22 23  1  0  0  0  0
 23 18  2  0  0  0  0
 26 21  1  0  0  0  0
M  END
>  <minimizedAffinity>
-5.28283167

>  <minimizedRMSD>
0.834498525

$$$$
