
 OpenBabel03262519343D

 30 32  0  0  1  0  0  0  0  0999 V2000
   37.7000   23.8680   33.7270 N   0  0  0  0  0  0  0  0  0  0  0  0
   37.5240   22.5270   33.2200 C   0  0  0  0  0  0  0  0  0  0  0  0
   36.6010   22.6900   32.0360 C   0  0  0  0  0  0  0  0  0  0  0  0
   36.4190   24.2240   31.8930 C   0  0  0  0  0  0  0  0  0  0  0  0
   37.7330   24.6320   32.5380 C   0  0  1  0  0  0  0  0  0  0  0  0
   37.0740   21.9380   34.0340 H   0  0  0  0  0  0  0  0  0  0  0  0
   38.4800   22.0790   32.8820 H   0  0  0  0  0  0  0  0  0  0  0  0
   37.0030   22.2420   31.1140 H   0  0  0  0  0  0  0  0  0  0  0  0
   35.6170   22.2890   32.3260 H   0  0  0  0  0  0  0  0  0  0  0  0
   35.5270   24.5310   32.4430 H   0  0  0  0  0  0  0  0  0  0  0  0
   36.3750   24.3790   30.8140 H   0  0  0  0  0  0  0  0  0  0  0  0
   38.5080   24.1140   31.8590 H   0  0  0  0  0  0  0  0  0  0  0  0
   37.9800   26.0240   32.5910 N   0  0  0  0  0  0  0  0  0  0  0  0
   37.9280   26.4950   31.1920 C   0  0  0  0  0  0  0  0  0  0  0  0
   38.0310   27.9730   31.0960 C   0  0  0  0  0  0  0  0  0  0  0  0
   37.1800   28.6670   31.9370 O   0  0  0  0  0  0  0  0  0  0  0  0
   36.2680   27.7690   32.4710 C   0  0  0  0  0  0  0  0  0  0  0  0
   36.9740   26.7410   33.3300 C   0  0  0  0  0  0  0  0  0  0  0  0
   38.9960   24.0360   34.3650 C   0  0  0  0  0  0  0  0  0  0  0  0
   39.6740   23.2770   33.9260 H   0  0  0  0  0  0  0  0  0  0  0  0
   39.4740   25.0160   34.1320 H   0  0  0  0  0  0  0  0  0  0  0  0
   37.9170   24.2180   37.9760 C   0  0  0  0  0  0  0  0  0  0  0  0
   37.9590   24.4440   36.5960 C   0  0  0  0  0  0  0  0  0  0  0  0
   38.9340   23.8180   35.8270 C   0  0  0  0  0  0  0  0  0  0  0  0
   39.8250   22.9960   36.4660 N   0  0  0  0  0  0  0  0  0  0  0  0
   39.7670   22.7920   37.7940 C   0  0  0  0  0  0  0  0  0  0  0  0
   38.8240   23.3980   38.5370 N   0  0  0  0  0  0  0  0  0  0  0  0
   37.1590   24.7050   38.5800 H   0  0  0  0  0  0  0  0  0  0  0  0
   37.2210   25.0960   36.1870 H   0  0  0  0  0  0  0  0  0  0  0  0
   40.4760   22.1400   38.2920 H   0  0  0  0  0  0  0  0  0  0  0  0
  1 19  1  0  0  0  0
  2  1  1  0  0  0  0
  2  6  1  0  0  0  0
  3  9  1  0  0  0  0
  3  2  1  0  0  0  0
  4  3  1  0  0  0  0
  4 10  1  0  0  0  0
  4  5  1  0  0  0  0
  5 12  1  6  0  0  0
  5 13  1  0  0  0  0
  5  1  1  0  0  0  0
  7  2  1  0  0  0  0
  8  3  1  0  0  0  0
 11  4  1  0  0  0  0
 13 18  1  0  0  0  0
 14 13  1  0  0  0  0
 15 14  1  0  0  0  0
 15 16  1  0  0  0  0
 16 17  1  0  0  0  0
 17 18  1  0  0  0  0
 19 24  1  0  0  0  0
 20 19  1  0  0  0  0
 21 19  1  0  0  0  0
 22 27  1  0  0  0  0
 22 28  1  0  0  0  0
 23 22  2  0  0  0  0
 24 25  2  0  0  0  0
 24 23  1  0  0  0  0
 25 26  1  0  0  0  0
 26 30  1  0  0  0  0
 26 27  2  0  0  0  0
 29 23  1  0  0  0  0
M  END
>  <minimizedAffinity>
-4.3523488

>  <minimizedRMSD>
3.33170104

$$$$
