REMARK  Name = 
REMARK  4 active torsions:
REMARK  status: ('A' for Active; 'I' for Inactive)
REMARK    1  A    between atoms: C_1  and  C_6
REMARK    2  A    between atoms: N_5  and  C_12
REMARK    3  A    between atoms: C_14  and  C_15
REMARK    4  A    between atoms: C_14  and  N_27
REMARK                            x       y       z     vdW  Elec       q    Type
REMARK                         _______ _______ _______ _____ _____    ______ ____
ROOT
ATOM      1  C   UNL     1      37.863  23.704  33.505  0.00  0.00    +0.000 A 
ATOM      2  C   UNL     1      37.466  22.650  32.672  0.00  0.00    +0.000 A 
ATOM      3  N   UNL     1      37.499  21.561  33.491  0.00  0.00    +0.000 NA
ATOM      4  C   UNL     1      37.883  21.964  34.690  0.00  0.00    +0.000 A 
ATOM      5  N   UNL     1      38.112  23.274  34.732  0.00  0.00    +0.000 N 
ATOM      6  H   UNL     1      37.207  22.774  31.612  0.00  0.00    +0.000 HD
ATOM      7  H   UNL     1      37.945  21.166  35.431  0.00  0.00    +0.000 HD
ENDROOT
BRANCH   1   8
ATOM      8  C   UNL     1      38.004  25.084  33.079  0.00  0.00    +0.000 A 
ATOM      9  C   UNL     1      39.292  25.581  32.771  0.00  0.00    +0.000 A 
ATOM     10  C   UNL     1      39.394  26.927  32.359  0.00  0.00    +0.000 A 
ATOM     11  N   UNL     1      38.246  27.651  32.286  0.00  0.00    +0.000 NA
ATOM     12  C   UNL     1      37.033  27.134  32.590  0.00  0.00    +0.000 A 
ATOM     13  N   UNL     1      36.908  25.854  32.986  0.00  0.00    +0.000 NA
ATOM     14  H   UNL     1      40.180  24.982  32.839  0.00  0.00    +0.000 HD
ATOM     15  H   UNL     1      40.343  27.381  32.106  0.00  0.00    +0.000 HD
ATOM     16  H   UNL     1      36.202  27.807  32.494  0.00  0.00    +0.000 HD
ENDBRANCH   1   8
BRANCH   5  17
ATOM     17  C   UNL     1      38.520  23.940  35.904  0.00  0.00    +0.000 C 
ATOM     18  C   UNL     1      38.095  25.228  36.360  0.00  0.00    +0.000 C 
ATOM     19  C   UNL     1      37.533  23.957  37.034  0.00  0.00    +0.000 C 
ATOM     20  H   UNL     1      39.566  23.619  36.209  0.00  0.00    +0.000 HD
ATOM     21  H   UNL     1      38.808  25.838  36.987  0.00  0.00    +0.000 HD
ATOM     22  H   UNL     1      37.480  25.875  35.750  0.00  0.00    +0.000 HD
BRANCH  19  23
ATOM     23  N   UNL     1      36.149  24.080  37.025  0.00  0.00    +0.000 NA
ATOM     24  C   UNL     1      35.670  25.241  36.373  0.00  0.00    +0.000 C 
ATOM     25  C   UNL     1      34.213  25.270  36.842  0.00  0.00    +0.000 C 
ATOM     26  C   UNL     1      33.882  23.796  36.823  0.00  0.00    +0.000 C 
ATOM     27  C   UNL     1      35.240  23.066  36.833  0.00  0.00    +0.000 C 
ATOM     28  H   UNL     1      35.230  22.467  35.922  0.00  0.00    +0.000 HD
ENDBRANCH  19  23
BRANCH  19  29
ATOM     29  C   UNL     1      38.126  23.755  38.423  0.00  0.00    +0.000 C 
ATOM     30  F   UNL     1      37.526  22.694  39.059  0.00  0.00    +0.000 F 
ATOM     31  F   UNL     1      39.509  23.345  38.292  0.00  0.00    +0.000 F 
ATOM     32  F   UNL     1      38.136  24.894  39.143  0.00  0.00    +0.000 F 
ENDBRANCH  19  29
ENDBRANCH   5  17
TORSDOF 4
