
 OpenBabel03262519543D

 29 32  0  0  1  0  0  0  0  0999 V2000
   38.1760   24.2330   34.7940 C   0  0  0  0  0  0  0  0  0  0  0  0
   38.2070   25.5300   34.2850 C   0  0  0  0  0  0  0  0  0  0  0  0
   37.8630   25.3670   32.9670 N   0  0  0  0  0  0  0  0  0  0  0  0
   37.6570   24.0720   32.7600 C   0  0  0  0  0  0  0  0  0  0  0  0
   37.8430   23.3340   33.8780 N   0  0  0  0  0  0  0  0  0  0  0  0
   38.4590   26.4050   34.8800 H   0  0  0  0  0  0  0  0  0  0  0  0
   37.3720   23.7130   31.7800 H   0  0  0  0  0  0  0  0  0  0  0  0
   38.4750   23.8920   36.1780 C   0  0  0  0  0  0  0  0  0  0  0  0
   39.6370   23.2120   36.5110 C   0  0  0  0  0  0  0  0  0  0  0  0
   39.8980   22.8950   37.8610 C   0  0  0  0  0  0  0  0  0  0  0  0
   38.9860   23.2800   38.7660 N   0  0  0  0  0  0  0  0  0  0  0  0
   37.8530   23.9450   38.4240 C   0  0  0  0  0  0  0  0  0  0  0  0
   37.6050   24.2460   37.1400 N   0  0  0  0  0  0  0  0  0  0  0  0
   40.3460   22.9200   35.7490 H   0  0  0  0  0  0  0  0  0  0  0  0
   40.8060   22.3600   38.1510 H   0  0  0  0  0  0  0  0  0  0  0  0
   37.1030   24.2650   39.1430 H   0  0  0  0  0  0  0  0  0  0  0  0
   37.6860   21.9140   33.9350 C   0  0  1  0  0  0  0  0  0  0  0  0
   36.5300   21.2830   34.5900 C   0  0  0  0  0  0  0  0  0  0  0  0
   36.5140   21.4070   33.0940 C   0  0  2  0  0  0  0  0  0  0  0  0
   38.6470   21.3710   33.7310 H   0  0  0  0  0  0  0  0  0  0  0  0
   36.5590   20.3330   35.1150 H   0  0  0  0  0  0  0  0  0  0  0  0
   35.8630   22.0230   35.1240 H   0  0  0  0  0  0  0  0  0  0  0  0
   35.8320   22.1470   32.6220 H   0  0  0  0  0  0  0  0  0  0  0  0
   36.6430   20.2000   32.3620 N   0  0  1  0  0  0  0  0  0  0  0  0
   35.6740   19.1700   32.6820 C   0  0  0  0  0  2  0  0  0  0  0  0
   36.0160   18.1190   31.6500 C   0  0  0  0  0  2  0  0  0  0  0  0
   36.3380   18.9190   30.4120 C   0  0  0  0  0  2  0  0  0  0  0  0
   36.6110   20.3230   30.9220 C   0  0  0  0  0  3  0  0  0  0  0  0
   35.7910   20.9580   30.5390 H   0  0  0  0  0  0  0  0  0  0  0  0
  1  8  1  0  0  0  0
  2  1  2  0  0  0  0
  2  6  1  0  0  0  0
  3  2  1  0  0  0  0
  4  3  2  0  0  0  0
  4  5  1  0  0  0  0
  5 17  1  0  0  0  0
  5  1  1  0  0  0  0
  7  4  1  0  0  0  0
  8  9  2  0  0  0  0
  8 13  1  0  0  0  0
  9 10  1  0  0  0  0
 10 15  1  0  0  0  0
 10 11  2  0  0  0  0
 12 11  1  0  0  0  0
 12 16  1  0  0  0  0
 13 12  2  0  0  0  0
 14  9  1  0  0  0  0
 17 20  1  6  0  0  0
 17 18  1  0  0  0  0
 18 21  1  0  0  0  0
 18 22  1  0  0  0  0
 19 23  1  6  0  0  0
 19 17  1  0  0  0  0
 19 18  1  0  0  0  0
 24 25  1  1  0  0  0
 24 19  1  0  0  0  0
 26 25  1  0  0  0  0
 27 28  1  0  0  0  0
 27 26  1  0  0  0  0
 28 24  1  0  0  0  0
 29 28  1  0  0  0  0
M  END
>  <minimizedAffinity>
-4.65302849

>  <minimizedRMSD>
1.48987758

$$$$
