
 OpenBabel03262519543D

 29 32  0  0  1  0  0  0  0  0999 V2000
   38.1760   24.0070   34.4830 C   0  0  0  0  0  0  0  0  0  0  0  0
   38.3150   25.2750   33.9230 C   0  0  0  0  0  0  0  0  0  0  0  0
   37.9280   25.0950   32.6200 N   0  0  0  0  0  0  0  0  0  0  0  0
   37.5990   23.8180   32.4670 C   0  0  0  0  0  0  0  0  0  0  0  0
   37.7410   23.1090   33.6090 N   0  0  0  0  0  0  0  0  0  0  0  0
   38.6600   26.1440   34.4780 H   0  0  0  0  0  0  0  0  0  0  0  0
   37.2600   23.4510   31.5080 H   0  0  0  0  0  0  0  0  0  0  0  0
   38.4740   23.6910   35.8730 C   0  0  0  0  0  0  0  0  0  0  0  0
   39.6780   23.1010   36.2310 C   0  0  0  0  0  0  0  0  0  0  0  0
   39.9370   22.8070   37.5860 C   0  0  0  0  0  0  0  0  0  0  0  0
   38.9800   23.1230   38.4720 N   0  0  0  0  0  0  0  0  0  0  0  0
   37.8070   23.6990   38.1070 C   0  0  0  0  0  0  0  0  0  0  0  0
   37.5610   23.9790   36.8180 N   0  0  0  0  0  0  0  0  0  0  0  0
   40.4210   22.8630   35.4830 H   0  0  0  0  0  0  0  0  0  0  0  0
   40.8760   22.3430   37.8950 H   0  0  0  0  0  0  0  0  0  0  0  0
   37.0220   23.9630   38.8110 H   0  0  0  0  0  0  0  0  0  0  0  0
   37.4560   21.7130   33.7250 C   0  0  1  0  0  0  0  0  0  0  0  0
   36.3330   21.2100   34.5310 C   0  0  0  0  0  0  0  0  0  0  0  0
   36.1480   21.3100   33.0440 C   0  0  2  0  0  0  0  0  0  0  0  0
   38.3290   21.0730   33.4230 H   0  0  0  0  0  0  0  0  0  0  0  0
   36.3340   20.2710   35.0750 H   0  0  0  0  0  0  0  0  0  0  0  0
   35.8110   22.0220   35.1200 H   0  0  0  0  0  0  0  0  0  0  0  0
   35.4870   22.1070   32.6360 H   0  0  0  0  0  0  0  0  0  0  0  0
   36.0690   20.0850   32.3370 N   0  0  1  0  0  0  0  0  0  0  0  0
   37.3380   19.5240   31.9160 C   0  0  0  0  0  2  0  0  0  0  0  0
   36.8940   18.2010   31.3390 C   0  0  0  0  0  2  0  0  0  0  0  0
   35.7970   17.7480   32.2710 C   0  0  0  0  0  2  0  0  0  0  0  0
   35.3780   19.0070   33.0100 C   0  0  0  0  0  3  0  0  0  0  0  0
   35.6780   18.8630   34.0640 H   0  0  0  0  0  0  0  0  0  0  0  0
  1  8  1  0  0  0  0
  2  6  1  0  0  0  0
  2  1  2  0  0  0  0
  3  2  1  0  0  0  0
  4  3  2  0  0  0  0
  4  5  1  0  0  0  0
  5 17  1  0  0  0  0
  5  1  1  0  0  0  0
  7  4  1  0  0  0  0
  8  9  2  0  0  0  0
  8 13  1  0  0  0  0
  9 10  1  0  0  0  0
 10 15  1  0  0  0  0
 10 11  2  0  0  0  0
 12 11  1  0  0  0  0
 12 16  1  0  0  0  0
 13 12  2  0  0  0  0
 14  9  1  0  0  0  0
 17 20  1  6  0  0  0
 17 18  1  0  0  0  0
 18 21  1  0  0  0  0
 18 22  1  0  0  0  0
 19 23  1  6  0  0  0
 19 17  1  0  0  0  0
 19 18  1  0  0  0  0
 24 25  1  1  0  0  0
 24 28  1  0  0  0  0
 24 19  1  0  0  0  0
 26 25  1  0  0  0  0
 26 27  1  0  0  0  0
 27 28  1  0  0  0  0
 28 29  1  0  0  0  0
M  END
>  <minimizedAffinity>
-4.58764935

>  <minimizedRMSD>
0.956899226

$$$$
