
 OpenBabel03262519553D

 29 32  0  0  1  0  0  0  0  0999 V2000
   38.1380   24.0950   34.7840 C   0  0  0  0  0  0  0  0  0  0  0  0
   38.2100   25.3630   34.2120 C   0  0  0  0  0  0  0  0  0  0  0  0
   37.8370   25.1510   32.9090 N   0  0  0  0  0  0  0  0  0  0  0  0
   37.5780   23.8570   32.7680 C   0  0  0  0  0  0  0  0  0  0  0  0
   37.7550   23.1670   33.9170 N   0  0  0  0  0  0  0  0  0  0  0  0
   38.5060   26.2560   34.7590 H   0  0  0  0  0  0  0  0  0  0  0  0
   37.2610   23.4630   31.8110 H   0  0  0  0  0  0  0  0  0  0  0  0
   38.4490   23.8090   36.1770 C   0  0  0  0  0  0  0  0  0  0  0  0
   39.6200   23.1540   36.5290 C   0  0  0  0  0  0  0  0  0  0  0  0
   39.8920   22.8910   37.8880 C   0  0  0  0  0  0  0  0  0  0  0  0
   38.9810   23.3000   38.7830 N   0  0  0  0  0  0  0  0  0  0  0  0
   37.8390   23.9390   38.4230 C   0  0  0  0  0  0  0  0  0  0  0  0
   37.5800   24.1900   37.1310 N   0  0  0  0  0  0  0  0  0  0  0  0
   40.3280   22.8410   35.7740 H   0  0  0  0  0  0  0  0  0  0  0  0
   40.8070   22.3760   38.1920 H   0  0  0  0  0  0  0  0  0  0  0  0
   37.0900   24.2780   39.1350 H   0  0  0  0  0  0  0  0  0  0  0  0
   37.5440   21.7590   34.0460 C   0  0  1  0  0  0  0  0  0  0  0  0
   36.3260   21.2040   34.6530 C   0  0  0  0  0  0  0  0  0  0  0  0
   36.4160   21.2380   33.1550 C   0  0  2  0  0  0  0  0  0  0  0  0
   38.4980   21.1750   33.9410 H   0  0  0  0  0  0  0  0  0  0  0  0
   36.2850   20.2870   35.2330 H   0  0  0  0  0  0  0  0  0  0  0  0
   35.6500   21.9950   35.0960 H   0  0  0  0  0  0  0  0  0  0  0  0
   35.7940   21.9690   32.5940 H   0  0  0  0  0  0  0  0  0  0  0  0
   36.5520   19.9850   32.5060 N   0  0  1  0  0  0  0  0  0  0  0  0
   35.5050   19.0220   32.7820 C   0  0  0  0  0  2  0  0  0  0  0  0
   35.8900   17.8990   31.8470 C   0  0  0  0  0  2  0  0  0  0  0  0
   36.3710   18.6090   30.6060 C   0  0  0  0  0  2  0  0  0  0  0  0
   36.6660   20.0270   31.0650 C   0  0  0  0  0  3  0  0  0  0  0  0
   35.9200   20.6750   30.5690 H   0  0  0  0  0  0  0  0  0  0  0  0
  1  8  1  0  0  0  0
  2  6  1  0  0  0  0
  2  1  2  0  0  0  0
  3  2  1  0  0  0  0
  4  3  2  0  0  0  0
  4  5  1  0  0  0  0
  5 17  1  0  0  0  0
  5  1  1  0  0  0  0
  7  4  1  0  0  0  0
  8  9  2  0  0  0  0
  8 13  1  0  0  0  0
  9 10  1  0  0  0  0
 10 15  1  0  0  0  0
 10 11  2  0  0  0  0
 12 11  1  0  0  0  0
 12 16  1  0  0  0  0
 13 12  2  0  0  0  0
 14  9  1  0  0  0  0
 17 20  1  1  0  0  0
 17 18  1  0  0  0  0
 18 22  1  0  0  0  0
 18 21  1  0  0  0  0
 19 23  1  6  0  0  0
 19 17  1  0  0  0  0
 19 18  1  0  0  0  0
 24 25  1  6  0  0  0
 24 19  1  0  0  0  0
 26 25  1  0  0  0  0
 27 28  1  0  0  0  0
 27 26  1  0  0  0  0
 28 24  1  0  0  0  0
 29 28  1  0  0  0  0
M  END
>  <minimizedAffinity>
-4.65541697

>  <minimizedRMSD>
1.04870272

$$$$
