
 OpenBabel03262515463D

 34 36  0  0  1  0  0  0  0  0999 V2000
   38.7090   24.6850   34.3470 N   0  0  0  0  0  0  0  0  0  0  0  0
   39.4750   25.7550   33.7800 C   0  0  1  0  0  0  0  0  0  0  0  0
   38.5720   26.9320   33.4580 C   0  0  0  0  0  0  0  0  0  0  0  0
   37.2450   26.5540   33.5920 O   0  0  0  0  0  0  0  0  0  0  0  0
   37.0240   25.4470   32.7710 C   0  0  0  0  0  0  0  0  0  0  0  0
   37.6680   24.2600   33.4270 C   0  0  0  0  0  0  0  0  0  0  0  0
   39.9500   25.4670   32.8380 H   0  0  0  0  0  0  0  0  0  0  0  0
   38.7210   27.7670   34.1730 H   0  0  0  0  0  0  0  0  0  0  0  0
   38.7650   27.3350   32.4570 H   0  0  0  0  0  0  0  0  0  0  0  0
   37.4900   25.6470   31.7850 H   0  0  0  0  0  0  0  0  0  0  0  0
   35.9310   25.2130   32.6860 H   0  0  0  0  0  0  0  0  0  0  0  0
   38.1780   23.5860   32.6780 H   0  0  0  0  0  0  0  0  0  0  0  0
   36.9360   23.6070   33.9570 H   0  0  0  0  0  0  0  0  0  0  0  0
   38.4910   23.5630   37.9020 C   0  0  0  0  0  0  0  0  0  0  0  0
   38.1030   24.1790   36.7130 C   0  0  0  0  0  0  0  0  0  0  0  0
   38.9360   24.1280   35.6090 C   0  0  0  0  0  0  0  0  0  0  0  0
   40.0990   23.4730   35.7400 N   0  0  0  0  0  0  0  0  0  0  0  0
   40.4680   22.8810   36.8880 C   0  0  0  0  0  0  0  0  0  0  0  0
   39.6660   22.9240   37.9710 N   0  0  0  0  0  0  0  0  0  0  0  0
   37.8150   23.6240   38.7430 H   0  0  0  0  0  0  0  0  0  0  0  0
   37.1760   24.7140   36.5690 H   0  0  0  0  0  0  0  0  0  0  0  0
   41.7050   22.1910   37.0100 N   0  0  0  0  0  0  0  0  0  0  0  0
   43.0110   22.5970   36.5660 C   0  0  0  0  0  0  0  0  0  0  0  0
   43.5110   21.3600   35.8460 C   0  0  0  0  0  0  0  0  0  0  0  0
   43.0460   20.2520   36.7710 C   0  0  0  0  0  0  0  0  0  0  0  0
   41.9520   20.8930   37.6180 C   0  0  0  0  0  0  0  0  0  0  0  0
   42.2300   21.0200   38.6690 H   0  0  0  0  0  0  0  0  0  0  0  0
   40.4010   26.2060   34.7920 N   0  0  0  0  0  0  0  0  0  0  0  0
   41.7770   26.1360   34.5330 C   0  0  0  0  0  0  0  0  0  0  0  0
   42.0550   26.4550   33.2430 N   0  0  0  0  0  0  0  0  0  0  0  0
   42.8140   25.8620   35.1610 O   0  0  0  0  0  0  0  0  0  0  0  0
   39.9130   26.5650   35.6120 H   0  0  0  0  0  0  0  0  0  0  0  0
   42.0830   25.5660   32.7010 H   0  0  0  0  0  0  0  0  0  0  0  0
   42.2210   27.3690   32.7970 H   0  0  0  0  0  0  0  0  0  0  0  0
  1 16  1  0  0  0  0
  2  7  1  6  0  0  0
  2  1  1  0  0  0  0
  2 28  1  0  0  0  0
  3  4  1  0  0  0  0
  3  2  1  0  0  0  0
  3  8  1  0  0  0  0
  5  6  1  0  0  0  0
  5  4  1  0  0  0  0
  6 13  1  0  0  0  0
  6  1  1  0  0  0  0
  9  3  1  0  0  0  0
 10  5  1  0  0  0  0
 11  5  1  0  0  0  0
 12  6  1  0  0  0  0
 14 19  1  0  0  0  0
 14 20  1  0  0  0  0
 15 14  2  0  0  0  0
 16 17  2  0  0  0  0
 16 15  1  0  0  0  0
 17 18  1  0  0  0  0
 18 22  1  0  0  0  0
 18 19  2  0  0  0  0
 21 15  1  0  0  0  0
 22 26  1  0  0  0  0
 23 22  1  0  0  0  0
 24 23  1  0  0  0  0
 24 25  1  0  0  0  0
 25 26  1  0  0  0  0
 26 27  1  0  0  0  0
 28 32  1  0  0  0  0
 29 28  1  0  0  0  0
 29 31  2  0  0  0  0
 30 29  1  0  0  0  0
 33 30  1  0  0  0  0
 34 30  1  0  0  0  0
M  END
>  <minimizedAffinity>
-4.75318956

>  <minimizedRMSD>
1.06130075

$$$$
