
 OpenBabel03262518433D

 36 40  0  0  1  0  0  0  0  0999 V2000
   37.6600   23.9120   30.8640 C   0  0  0  0  0  0  0  0  0  0  0  0
   36.7310   24.2030   31.8860 C   0  0  0  0  0  0  0  0  0  0  0  0
   36.6060   25.5140   32.3230 C   0  0  0  0  0  0  0  0  0  0  0  0
   37.3960   26.4530   31.7340 N   0  0  0  0  0  0  0  0  0  0  0  0
   38.2670   26.1410   30.7660 C   0  0  0  0  0  0  0  0  0  0  0  0
   38.4100   24.8850   30.3220 N   0  0  0  0  0  0  0  0  0  0  0  0
   39.0360   27.2170   30.2290 N   0  0  0  0  0  0  0  0  0  0  0  0
   38.4310   27.8860   29.2850 N   0  0  0  0  0  0  0  0  0  0  0  0
   39.2490   28.8760   28.8520 C   0  0  0  0  0  0  0  0  0  0  0  0
   40.3930   28.8080   29.5590 C   0  0  0  0  0  0  0  0  0  0  0  0
   40.2560   27.7520   30.4340 C   0  0  0  0  0  0  0  0  0  0  0  0
   36.1320   23.4040   32.3120 H   0  0  0  0  0  0  0  0  0  0  0  0
   35.9030   25.7640   33.1040 H   0  0  0  0  0  0  0  0  0  0  0  0
   39.0650   29.6150   28.0830 H   0  0  0  0  0  0  0  0  0  0  0  0
   41.3180   29.3740   29.5690 H   0  0  0  0  0  0  0  0  0  0  0  0
   41.0800   27.1280   31.4610 C   0  0  0  0  0  0  0  0  0  0  0  0
   42.3570   26.7620   31.4820 N   0  0  0  0  0  0  0  0  0  0  0  0
   42.6650   26.2380   32.6270 O   0  0  0  0  0  0  0  0  0  0  0  0
   41.5420   26.2730   33.3600 C   0  0  0  0  0  0  0  0  0  0  0  0
   40.5270   26.8190   32.6780 N   0  0  0  0  0  0  0  0  0  0  0  0
   41.4110   25.7720   34.7690 C   0  0  2  0  0  0  0  0  0  0  0  0
   42.3310   24.7080   35.2660 C   0  0  0  0  0  0  0  0  0  0  0  0
   40.8780   24.3990   34.9980 C   0  0  1  0  0  0  0  0  0  0  0  0
   41.2460   26.6180   35.4820 H   0  0  0  0  0  0  0  0  0  0  0  0
   42.6510   24.7660   36.3240 H   0  0  0  0  0  0  0  0  0  0  0  0
   43.1120   24.3480   34.5990 H   0  0  0  0  0  0  0  0  0  0  0  0
   40.7280   23.8000   34.0870 H   0  0  0  0  0  0  0  0  0  0  0  0
   39.9420   24.2690   36.0670 N   0  0  1  0  0  0  0  0  0  0  0  0
   38.7400   25.0450   35.7470 C   0  0  0  0  0  0  0  0  0  0  0  0
   37.7330   24.5410   36.7820 C   0  0  0  0  0  0  0  0  0  0  0  0
   38.2760   23.2120   37.2230 C   0  0  0  0  0  0  0  0  0  0  0  0
   39.3730   22.9520   36.2080 C   0  0  0  0  0  0  0  0  0  0  0  0
   38.9050   22.5760   35.2800 H   0  0  0  0  0  0  0  0  0  0  0  0
   37.7970   22.5690   30.4080 N   0  0  0  0  0  0  0  0  0  0  0  0
   38.6810   22.1880   30.8320 H   0  0  0  0  0  0  0  0  0  0  0  0
   37.1110   22.1310   29.7810 H   0  0  0  0  0  0  0  0  0  0  0  0
  1  2  1  0  0  0  0
  2 12  1  0  0  0  0
  2  3  2  0  0  0  0
  3 13  1  0  0  0  0
  4  3  1  0  0  0  0
  5  4  2  0  0  0  0
  6  5  1  0  0  0  0
  6  1  2  0  0  0  0
  7 11  1  0  0  0  0
  7  5  1  0  0  0  0
  8  7  1  0  0  0  0
  9  8  2  0  0  0  0
  9 10  1  0  0  0  0
 10 15  1  0  0  0  0
 10 11  2  0  0  0  0
 11 16  1  0  0  0  0
 14  9  1  0  0  0  0
 16 17  2  0  0  0  0
 16 20  1  0  0  0  0
 17 18  1  0  0  0  0
 18 19  1  0  0  0  0
 19 21  1  0  0  0  0
 20 19  2  0  0  0  0
 21 23  1  0  0  0  0
 21 22  1  0  0  0  0
 21 24  1  1  0  0  0
 22 25  1  0  0  0  0
 23 27  1  6  0  0  0
 23 22  1  0  0  0  0
 23 28  1  0  0  0  0
 26 22  1  0  0  0  0
 28 29  1  6  0  0  0
 28 32  1  0  0  0  0
 29 30  1  0  0  0  0
 30 31  1  0  0  0  0
 32 31  1  0  0  0  0
 33 32  1  0  0  0  0
 34 35  1  0  0  0  0
 34  1  1  0  0  0  0
 36 34  1  0  0  0  0
M  END
>  <minimizedAffinity>
-4.3477459

>  <minimizedRMSD>
3.88645124

$$$$
