
 OpenBabel03262519333D

 18 19  0  0  0  0  0  0  0  0999 V2000
   37.8480   24.0580   38.0490 C   0  0  0  0  0  0  0  0  0  0  0  0
   37.8020   24.5330   36.7370 C   0  0  0  0  0  0  0  0  0  0  0  0
   38.8060   24.1330   35.8450 C   0  0  0  0  0  0  0  0  0  0  0  0
   39.7930   23.2900   36.3040 N   0  0  0  0  0  0  0  0  0  0  0  0
   39.7930   22.8580   37.5890 C   0  0  0  0  0  0  0  0  0  0  0  0
   38.8280   23.2420   38.4480 N   0  0  0  0  0  0  0  0  0  0  0  0
   37.0900   24.3550   38.7430 H   0  0  0  0  0  0  0  0  0  0  0  0
   37.0060   25.1970   36.4120 H   0  0  0  0  0  0  0  0  0  0  0  0
   40.5830   22.1960   37.9190 H   0  0  0  0  0  0  0  0  0  0  0  0
   38.8090   24.6060   34.4320 C   0  0  0  0  0  0  0  0  0  0  0  0
   38.8710   23.7670   33.7260 H   0  0  0  0  0  0  0  0  0  0  0  0
   39.7470   25.2030   34.3160 H   0  0  0  0  0  0  0  0  0  0  0  0
   37.7180   25.5090   34.1530 N   0  0  0  0  0  0  0  0  0  0  0  0
   37.1360   25.3330   32.8640 C   0  0  0  0  0  0  0  0  0  0  0  0
   36.6640   26.7090   32.4380 C   0  0  0  0  0  0  0  0  0  0  0  0
   37.0570   27.6200   33.6110 C   0  0  0  0  0  0  0  0  0  0  0  0
   38.2900   26.8350   34.0750 C   0  0  0  0  0  0  0  0  0  0  0  0
   38.6630   27.2120   35.0400 H   0  0  0  0  0  0  0  0  0  0  0  0
  1  6  1  0  0  0  0
  1  7  1  0  0  0  0
  2  1  2  0  0  0  0
  3  4  2  0  0  0  0
  3  2  1  0  0  0  0
  4  5  1  0  0  0  0
  5  9  1  0  0  0  0
  5  6  2  0  0  0  0
  8  2  1  0  0  0  0
 10  3  1  0  0  0  0
 11 10  1  0  0  0  0
 12 10  1  0  0  0  0
 13 10  1  0  0  0  0
 14 13  1  0  0  0  0
 15 14  1  0  0  0  0
 15 16  1  0  0  0  0
 16 17  1  0  0  0  0
 17 13  1  0  0  0  0
 17 18  1  0  0  0  0
M  END
>  <minimizedAffinity>
-3.4934032

>  <minimizedRMSD>
5.33114767

$$$$
