
 OpenBabel03262519553D

 29 32  0  0  1  0  0  0  0  0999 V2000
   38.1230   24.4400   34.4070 C   0  0  0  0  0  0  0  0  0  0  0  0
   38.0650   25.7980   34.1040 C   0  0  0  0  0  0  0  0  0  0  0  0
   37.5730   25.8220   32.8240 N   0  0  0  0  0  0  0  0  0  0  0  0
   37.3730   24.5660   32.4440 C   0  0  0  0  0  0  0  0  0  0  0  0
   37.7050   23.6760   33.4060 N   0  0  0  0  0  0  0  0  0  0  0  0
   38.3650   26.5830   34.7950 H   0  0  0  0  0  0  0  0  0  0  0  0
   36.9830   24.3480   31.4580 H   0  0  0  0  0  0  0  0  0  0  0  0
   38.5900   23.9060   35.6780 C   0  0  0  0  0  0  0  0  0  0  0  0
   39.8620   23.3650   35.8030 C   0  0  0  0  0  0  0  0  0  0  0  0
   40.2840   22.8560   37.0500 C   0  0  0  0  0  0  0  0  0  0  0  0
   39.4120   22.9250   38.0650 N   0  0  0  0  0  0  0  0  0  0  0  0
   38.1700   23.4570   37.9270 C   0  0  0  0  0  0  0  0  0  0  0  0
   37.7680   23.9420   36.7430 N   0  0  0  0  0  0  0  0  0  0  0  0
   40.5330   23.3280   34.9580 H   0  0  0  0  0  0  0  0  0  0  0  0
   41.2800   22.4240   37.1750 H   0  0  0  0  0  0  0  0  0  0  0  0
   37.4510   23.5230   38.7390 H   0  0  0  0  0  0  0  0  0  0  0  0
   37.5880   22.2590   33.2600 C   0  0  1  0  0  0  0  0  0  0  0  0
   36.7910   21.4420   34.1870 C   0  0  0  0  0  0  0  0  0  0  0  0
   36.1810   21.8120   32.8660 C   0  0  2  0  0  0  0  0  0  0  0  0
   38.3910   21.8310   32.6010 H   0  0  0  0  0  0  0  0  0  0  0  0
   37.0290   20.4240   34.4760 H   0  0  0  0  0  0  0  0  0  0  0  0
   36.3900   22.0310   35.0650 H   0  0  0  0  0  0  0  0  0  0  0  0
   35.3640   22.5660   32.8420 H   0  0  0  0  0  0  0  0  0  0  0  0
   36.0110   20.7560   31.9360 N   0  0  1  0  0  0  0  0  0  0  0  0
   36.9600   20.7320   30.8390 C   0  0  0  0  0  2  0  0  0  0  0  0
   36.5770   19.4410   30.1530 C   0  0  0  0  0  2  0  0  0  0  0  0
   36.2560   18.5050   31.2930 C   0  0  0  0  0  2  0  0  0  0  0  0
   36.0260   19.4180   32.4850 C   0  0  0  0  0  3  0  0  0  0  0  0
   36.8550   19.2250   33.1890 H   0  0  0  0  0  0  0  0  0  0  0  0
  1  8  1  0  0  0  0
  2  1  2  0  0  0  0
  2  6  1  0  0  0  0
  3  2  1  0  0  0  0
  4  3  2  0  0  0  0
  4  5  1  0  0  0  0
  5  1  1  0  0  0  0
  7  4  1  0  0  0  0
  8  9  2  0  0  0  0
  8 13  1  0  0  0  0
  9 10  1  0  0  0  0
 10 15  1  0  0  0  0
 10 11  2  0  0  0  0
 12 11  1  0  0  0  0
 12 16  1  0  0  0  0
 13 12  2  0  0  0  0
 14  9  1  0  0  0  0
 17 20  1  6  0  0  0
 17  5  1  0  0  0  0
 17 18  1  0  0  0  0
 18 21  1  0  0  0  0
 18 22  1  0  0  0  0
 19 23  1  1  0  0  0
 19 17  1  0  0  0  0
 19 18  1  0  0  0  0
 24 25  1  6  0  0  0
 24 28  1  0  0  0  0
 24 19  1  0  0  0  0
 26 25  1  0  0  0  0
 26 27  1  0  0  0  0
 27 28  1  0  0  0  0
 28 29  1  0  0  0  0
M  END
>  <minimizedAffinity>
-4.39293289

>  <minimizedRMSD>
1.59268248

$$$$
