
 OpenBabel03262519143D

 32 35  0  0  0  0  0  0  0  0999 V2000
   38.9770   23.4630   36.2090 C   0  0  0  0  0  0  0  0  0  0  0  0
   39.4030   24.5670   35.4310 C   0  0  0  0  0  0  0  0  0  0  0  0
   40.6650   24.5720   34.8690 C   0  0  0  0  0  0  0  0  0  0  0  0
   41.4460   23.4820   35.1060 N   0  0  0  0  0  0  0  0  0  0  0  0
   40.9960   22.4130   35.8740 C   0  0  0  0  0  0  0  0  0  0  0  0
   39.7800   22.4360   36.4010 N   0  0  0  0  0  0  0  0  0  0  0  0
   37.9660   23.5390   36.6160 H   0  0  0  0  0  0  0  0  0  0  0  0
   41.0600   25.3740   34.2660 H   0  0  0  0  0  0  0  0  0  0  0  0
   41.9650   21.3130   36.0440 C   0  0  0  0  0  0  0  0  0  0  0  0
   42.1820   20.8880   37.3310 C   0  0  0  0  0  0  0  0  0  0  0  0
   43.4380   19.5090   37.0770 S   0  0  0  0  0  0  0  0  0  0  0  0
   43.3970   19.8170   35.2100 C   0  0  0  0  0  0  0  0  0  0  0  0
   42.6620   20.6560   35.1370 N   0  0  0  0  0  0  0  0  0  0  0  0
   41.8780   21.0890   38.3480 H   0  0  0  0  0  0  0  0  0  0  0  0
   44.1610   19.0980   34.1890 N   0  0  0  0  0  0  0  0  0  0  0  0
   45.3020   18.1810   34.3440 C   0  0  0  0  0  0  0  0  0  0  0  0
   46.3180   18.7490   33.3630 C   0  0  0  0  0  0  0  0  0  0  0  0
   45.4780   19.4970   32.3390 C   0  0  0  0  0  0  0  0  0  0  0  0
   44.0890   19.0250   32.7200 C   0  0  0  0  0  0  0  0  0  0  0  0
   43.8440   18.0330   32.3480 H   0  0  0  0  0  0  0  0  0  0  0  0
   38.5930   25.7410   35.1760 C   0  0  0  0  0  0  0  0  0  0  0  0
   38.5840   26.8870   35.9800 C   0  0  0  0  0  0  0  0  0  0  0  0
   37.7640   27.8950   35.5960 C   0  0  0  0  0  0  0  0  0  0  0  0
   36.9990   27.7310   34.4500 C   0  0  0  0  0  0  0  0  0  0  0  0
   37.4600   26.0240   33.8540 S   0  0  0  0  0  0  0  0  0  0  0  0
   39.1950   26.9790   36.8680 H   0  0  0  0  0  0  0  0  0  0  0  0
   37.6180   28.8490   36.0800 H   0  0  0  0  0  0  0  0  0  0  0  0
   36.0630   28.5180   33.7500 C   0  0  0  0  0  0  0  0  0  0  0  0
   35.8160   28.2980   32.5570 O   0  0  0  0  0  0  0  0  0  0  0  0
   35.3670   29.6040   34.4100 N   0  0  0  0  0  0  0  0  0  0  0  0
   34.3260   29.6200   34.3380 H   0  0  0  0  0  0  0  0  0  0  0  0
   35.9050   30.3300   34.9320 H   0  0  0  0  0  0  0  0  0  0  0  0
  1  6  1  0  0  0  0
  1  7  1  0  0  0  0
  2  1  2  0  0  0  0
  3  4  2  0  0  0  0
  3  2  1  0  0  0  0
  4  5  1  0  0  0  0
  5  9  1  0  0  0  0
  5  6  2  0  0  0  0
  8  3  1  0  0  0  0
  9 10  2  0  0  0  0
 10 14  1  0  0  0  0
 11 10  1  0  0  0  0
 12 11  1  0  0  0  0
 13 12  2  0  0  0  0
 13  9  1  0  0  0  0
 15 16  1  0  0  0  0
 15 12  1  0  0  0  0
 17 16  1  0  0  0  0
 18 19  1  0  0  0  0
 18 17  1  0  0  0  0
 19 15  1  0  0  0  0
 20 19  1  0  0  0  0
 21  2  1  0  0  0  0
 21 22  2  0  0  0  0
 22 26  1  0  0  0  0
 23 22  1  0  0  0  0
 23 27  1  0  0  0  0
 24 23  2  0  0  0  0
 25 24  1  0  0  0  0
 25 21  1  0  0  0  0
 28 30  1  0  0  0  0
 28 24  1  0  0  0  0
 29 28  2  0  0  0  0
 30 32  1  0  0  0  0
 31 30  1  0  0  0  0
M  END
>  <minimizedAffinity>
-4.40828466

>  <minimizedRMSD>
3.2583878

$$$$
