
 OpenBabel03262519443D

 31 33  0  0  1  0  0  0  0  0999 V2000
   38.6890   24.6520   33.9970 C   0  0  0  0  0  0  0  0  0  0  0  0
   39.6090   24.1890   33.6000 H   0  0  0  0  0  0  0  0  0  0  0  0
   38.9100   25.7180   34.2040 H   0  0  0  0  0  0  0  0  0  0  0  0
   37.6380   24.5230   33.0660 N   0  0  0  0  0  0  0  0  0  0  0  0
   37.0470   23.4810   32.4390 C   0  0  0  0  0  0  0  0  0  0  0  0
   36.0030   23.8280   31.6130 C   0  0  0  0  0  0  0  0  0  0  0  0
   35.9460   25.1480   31.7370 N   0  0  0  0  0  0  0  0  0  0  0  0
   36.9240   25.5810   32.6050 C   0  0  0  0  0  0  0  0  0  0  0  0
   37.3700   22.4570   32.5790 H   0  0  0  0  0  0  0  0  0  0  0  0
   35.3770   23.1920   31.0060 H   0  0  0  0  0  0  0  0  0  0  0  0
   37.0360   27.0160   32.7930 N   0  0  0  0  0  0  0  0  0  0  0  0
   37.4410   28.1650   32.0310 C   0  0  0  0  0  0  0  0  0  0  0  0
   36.1740   29.0440   32.1790 C   0  0  0  0  0  0  0  0  0  0  0  0
   35.8560   28.8080   33.6430 C   0  0  0  0  0  0  0  0  0  0  0  0
   36.7600   27.6830   34.0780 C   0  0  0  0  0  0  0  0  0  0  0  0
   36.2410   27.0370   34.7940 H   0  0  0  0  0  0  0  0  0  0  0  0
   38.3950   24.0130   35.3240 C   0  0  1  0  0  0  0  0  0  0  0  0
   37.5190   23.3510   35.1480 H   0  0  0  0  0  0  0  0  0  0  0  0
   40.7260   22.0900   37.5980 C   0  0  0  0  0  0  0  0  0  0  0  0
   39.6550   22.8960   37.2150 C   0  0  0  0  0  0  0  0  0  0  0  0
   39.4970   23.1610   35.8150 C   0  0  0  0  0  0  0  0  0  0  0  0
   40.3900   22.6190   34.9360 N   0  0  0  0  0  0  0  0  0  0  0  0
   41.4080   21.8480   35.3500 C   0  0  0  0  0  0  0  0  0  0  0  0
   41.5740   21.5840   36.6900 N   0  0  0  0  0  0  0  0  0  0  0  0
   40.7580   21.9520   38.6640 H   0  0  0  0  0  0  0  0  0  0  0  0
   38.9110   23.3590   37.8460 H   0  0  0  0  0  0  0  0  0  0  0  0
   42.1110   21.4220   34.6630 H   0  0  0  0  0  0  0  0  0  0  0  0
   38.0230   25.0810   36.3380 C   0  0  0  0  0  0  0  0  0  0  0  0
   38.8280   25.8370   36.4370 H   0  0  0  0  0  0  0  0  0  0  0  0
   37.7950   24.5790   37.3170 H   0  0  0  0  0  0  0  0  0  0  0  0
   37.1240   25.6140   36.0050 H   0  0  0  0  0  0  0  0  0  0  0  0
  1  3  1  0  0  0  0
  1 17  1  0  0  0  0
  2  1  1  0  0  0  0
  4  1  1  0  0  0  0
  5  9  1  0  0  0  0
  5  4  1  0  0  0  0
  6  7  1  0  0  0  0
  6  5  2  0  0  0  0
  7  8  2  0  0  0  0
  8 11  1  0  0  0  0
  8  4  1  0  0  0  0
 10  6  1  0  0  0  0
 11 15  1  0  0  0  0
 12 13  1  0  0  0  0
 12 11  1  0  0  0  0
 13 14  1  0  0  0  0
 14 15  1  0  0  0  0
 15 16  1  0  0  0  0
 17 18  1  6  0  0  0
 17 21  1  0  0  0  0
 17 28  1  0  0  0  0
 19 25  1  0  0  0  0
 20 19  1  0  0  0  0
 20 26  1  0  0  0  0
 21 20  2  0  0  0  0
 22 23  2  0  0  0  0
 22 21  1  0  0  0  0
 23 24  1  0  0  0  0
 24 19  2  0  0  0  0
 27 23  1  0  0  0  0
 28 29  1  0  0  0  0
 28 30  1  0  0  0  0
 31 28  1  0  0  0  0
M  END
>  <minimizedAffinity>
-4.66265202

>  <minimizedRMSD>
2.53526092

$$$$
