
 OpenBabel03262519553D

 29 32  0  0  1  0  0  0  0  0999 V2000
   37.5180   22.0840   34.2780 C   0  0  0  0  0  0  0  0  0  0  0  0
   37.1050   21.6960   35.5500 C   0  0  0  0  0  0  0  0  0  0  0  0
   37.7890   22.5430   36.3840 N   0  0  0  0  0  0  0  0  0  0  0  0
   38.5290   23.3450   35.6270 C   0  0  0  0  0  0  0  0  0  0  0  0
   38.3850   23.0880   34.3080 N   0  0  0  0  0  0  0  0  0  0  0  0
   36.3980   20.8900   35.7340 H   0  0  0  0  0  0  0  0  0  0  0  0
   39.1550   24.1010   36.0810 H   0  0  0  0  0  0  0  0  0  0  0  0
   37.0550   21.4650   33.0440 C   0  0  0  0  0  0  0  0  0  0  0  0
   37.7930   20.4660   32.4250 C   0  0  0  0  0  0  0  0  0  0  0  0
   37.3170   19.8850   31.2300 C   0  0  0  0  0  0  0  0  0  0  0  0
   36.1510   20.3430   30.7510 N   0  0  0  0  0  0  0  0  0  0  0  0
   35.4410   21.3220   31.3680 C   0  0  0  0  0  0  0  0  0  0  0  0
   35.8930   21.8740   32.5040 N   0  0  0  0  0  0  0  0  0  0  0  0
   38.7280   20.1270   32.8460 H   0  0  0  0  0  0  0  0  0  0  0  0
   37.8780   19.0970   30.7220 H   0  0  0  0  0  0  0  0  0  0  0  0
   34.4940   21.7040   30.9940 H   0  0  0  0  0  0  0  0  0  0  0  0
   39.0660   23.8030   33.2740 C   0  0  1  0  0  0  0  0  0  0  0  0
   38.3980   24.8380   32.4710 C   0  0  0  0  0  0  0  0  0  0  0  0
   39.2760   25.2800   33.6060 C   0  0  2  0  0  0  0  0  0  0  0  0
   40.0060   23.2840   32.9450 H   0  0  0  0  0  0  0  0  0  0  0  0
   38.6120   25.0470   31.4280 H   0  0  0  0  0  0  0  0  0  0  0  0
   37.2900   24.9180   32.6830 H   0  0  0  0  0  0  0  0  0  0  0  0
   38.8030   25.6980   34.5220 H   0  0  0  0  0  0  0  0  0  0  0  0
   40.4910   25.9170   33.2490 N   0  0  1  0  0  0  0  0  0  0  0  0
   40.3520   27.1300   32.4670 C   0  0  0  0  0  2  0  0  0  0  0  0
   41.7890   27.5930   32.3930 C   0  0  0  0  0  2  0  0  0  0  0  0
   42.3440   27.2740   33.7590 C   0  0  0  0  0  2  0  0  0  0  0  0
   41.3710   26.2630   34.3420 C   0  0  0  0  0  3  0  0  0  0  0  0
   40.8690   26.7670   35.1880 H   0  0  0  0  0  0  0  0  0  0  0  0
  1  5  1  0  0  0  0
  1  2  2  0  0  0  0
  2  6  1  0  0  0  0
  2  3  1  0  0  0  0
  4  7  1  0  0  0  0
  4  3  2  0  0  0  0
  5  4  1  0  0  0  0
  8  1  1  0  0  0  0
  9 14  1  0  0  0  0
  9  8  2  0  0  0  0
 10  9  1  0  0  0  0
 11 10  2  0  0  0  0
 11 12  1  0  0  0  0
 12 13  2  0  0  0  0
 13  8  1  0  0  0  0
 15 10  1  0  0  0  0
 16 12  1  0  0  0  0
 17 20  1  6  0  0  0
 17 19  1  0  0  0  0
 17  5  1  0  0  0  0
 18 22  1  0  0  0  0
 18 17  1  0  0  0  0
 18 19  1  0  0  0  0
 19 23  1  1  0  0  0
 21 18  1  0  0  0  0
 24 25  1  1  0  0  0
 24 19  1  0  0  0  0
 24 28  1  0  0  0  0
 26 25  1  0  0  0  0
 26 27  1  0  0  0  0
 27 28  1  0  0  0  0
 28 29  1  0  0  0  0
M  END
>  <minimizedAffinity>
-3.68990564

>  <minimizedRMSD>
7.11903429

$$$$
