
 OpenBabel03262519553D

 31 33  0  0  1  0  0  0  0  0999 V2000
   38.0710   23.4870   34.7660 C   0  0  0  0  0  0  0  0  0  0  0  0
   38.3370   24.5540   33.9070 C   0  0  0  0  0  0  0  0  0  0  0  0
   37.8470   24.1140   32.7040 N   0  0  0  0  0  0  0  0  0  0  0  0
   37.3500   22.9030   32.8800 C   0  0  0  0  0  0  0  0  0  0  0  0
   37.4700   22.4740   34.1560 N   0  0  0  0  0  0  0  0  0  0  0  0
   38.8100   25.4970   34.1160 H   0  0  0  0  0  0  0  0  0  0  0  0
   36.9010   22.3550   32.0480 H   0  0  0  0  0  0  0  0  0  0  0  0
   38.4110   23.4760   36.1780 C   0  0  0  0  0  0  0  0  0  0  0  0
   39.5860   22.8640   36.6250 C   0  0  0  0  0  0  0  0  0  0  0  0
   39.8640   22.8830   38.0090 C   0  0  0  0  0  0  0  0  0  0  0  0
   38.9780   23.4900   38.8210 N   0  0  0  0  0  0  0  0  0  0  0  0
   37.8490   24.0760   38.3700 C   0  0  0  0  0  0  0  0  0  0  0  0
   37.5570   24.0740   37.0540 N   0  0  0  0  0  0  0  0  0  0  0  0
   40.2640   22.3890   35.9360 H   0  0  0  0  0  0  0  0  0  0  0  0
   40.7440   22.4310   38.3970 H   0  0  0  0  0  0  0  0  0  0  0  0
   37.1250   24.5690   39.0070 H   0  0  0  0  0  0  0  0  0  0  0  0
   37.0150   21.2000   34.6200 C   0  0  1  0  0  0  0  0  0  0  0  0
   35.8500   21.0660   35.5010 C   0  0  0  0  0  0  0  0  0  0  0  0
   35.6750   20.7870   34.0130 C   0  0  2  0  0  0  0  0  0  0  0  0
   37.7880   20.4050   34.6720 H   0  0  0  0  0  0  0  0  0  0  0  0
   35.8450   20.2560   36.2300 H   0  0  0  0  0  0  0  0  0  0  0  0
   35.2740   21.9470   35.8370 H   0  0  0  0  0  0  0  0  0  0  0  0
   35.1250   21.4930   33.3960 H   0  0  0  0  0  0  0  0  0  0  0  0
   35.4670   19.3730   33.7570 N   0  0  0  0  0  0  0  0  0  0  0  0
   35.4100   18.9540   32.3990 C   0  0  0  0  0  0  0  0  0  0  0  0
   36.1000   19.5260   31.4800 N   0  0  0  0  0  0  0  0  0  0  0  0
   34.5710   17.8610   31.9840 N   0  0  0  0  0  0  0  0  0  0  0  0
   35.3560   18.6360   34.4880 H   0  0  0  0  0  0  0  0  0  0  0  0
   36.7490   20.3170   31.5910 H   0  0  0  0  0  0  0  0  0  0  0  0
   33.5990   17.4890   31.9510 H   0  0  0  0  0  0  0  0  0  0  0  0
   34.9880   17.0250   31.4990 H   0  0  0  0  0  0  0  0  0  0  0  0
  1  8  1  0  0  0  0
  2  6  1  0  0  0  0
  2  1  2  0  0  0  0
  3  4  2  0  0  0  0
  3  2  1  0  0  0  0
  4  5  1  0  0  0  0
  5 17  1  0  0  0  0
  5  1  1  0  0  0  0
  7  4  1  0  0  0  0
  8  9  2  0  0  0  0
  8 13  1  0  0  0  0
  9 10  1  0  0  0  0
 10 15  1  0  0  0  0
 10 11  2  0  0  0  0
 12 11  1  0  0  0  0
 12 16  1  0  0  0  0
 13 12  2  0  0  0  0
 14  9  1  0  0  0  0
 17 20  1  1  0  0  0
 17 18  1  0  0  0  0
 18 22  1  0  0  0  0
 18 21  1  0  0  0  0
 19 23  1  6  0  0  0
 19 17  1  0  0  0  0
 19 18  1  0  0  0  0
 24 19  1  0  0  0  0
 24 28  1  0  0  0  0
 25 24  1  0  0  0  0
 26 29  1  0  0  0  0
 26 25  2  0  0  0  0
 27 25  1  0  0  0  0
 30 27  1  0  0  0  0
 31 27  1  0  0  0  0
M  END
>  <minimizedAffinity>
-4.88938618

>  <minimizedRMSD>
0.502304494

$$$$
