
 OpenBabel03262518293D

 35 37  0  0  0  0  0  0  0  0999 V2000
   37.8800   26.0020   35.8260 C   0  0  0  0  0  0  0  0  0  0  0  0
   38.4030   26.9610   36.4220 O   0  0  0  0  0  0  0  0  0  0  0  0
   37.5440   26.1090   34.3990 C   0  0  0  0  0  0  0  0  0  0  0  0
   37.7720   25.0230   33.5820 C   0  0  0  0  0  0  0  0  0  0  0  0
   37.4480   25.1400   32.2280 C   0  0  0  0  0  0  0  0  0  0  0  0
   36.9340   26.3130   31.8200 N   0  0  0  0  0  0  0  0  0  0  0  0
   36.7170   27.3570   32.6220 C   0  0  0  0  0  0  0  0  0  0  0  0
   37.0240   27.2550   33.9180 N   0  0  0  0  0  0  0  0  0  0  0  0
   38.1860   24.1390   34.0100 H   0  0  0  0  0  0  0  0  0  0  0  0
   37.6130   24.3170   31.5660 H   0  0  0  0  0  0  0  0  0  0  0  0
   36.1620   28.5210   32.0290 N   0  0  0  0  0  0  0  0  0  0  0  0
   36.4350   28.8110   30.6660 C   0  0  0  0  0  0  0  0  0  0  0  0
   36.4630   27.8710   29.7870 N   0  0  0  0  0  0  0  0  0  0  0  0
   36.6820   30.1580   30.2310 N   0  0  0  0  0  0  0  0  0  0  0  0
   35.5580   29.1850   32.5490 H   0  0  0  0  0  0  0  0  0  0  0  0
   36.2960   26.8690   29.9950 H   0  0  0  0  0  0  0  0  0  0  0  0
   36.2150   31.0830   30.1730 H   0  0  0  0  0  0  0  0  0  0  0  0
   37.5880   30.5060   29.8000 H   0  0  0  0  0  0  0  0  0  0  0  0
   37.6040   24.8150   36.4930 O   0  0  0  0  0  0  0  0  0  0  0  0
   39.6930   22.5950   38.2740 N   0  0  0  0  0  0  0  0  0  0  0  0
   38.6070   23.3570   38.1230 N   0  0  0  0  0  0  0  0  0  0  0  0
   38.6440   23.9500   36.9040 C   0  0  0  0  0  0  0  0  0  0  0  0
   39.7940   23.5490   36.2530 C   0  0  0  0  0  0  0  0  0  0  0  0
   40.4200   22.7070   37.1370 C   0  0  0  0  0  0  0  0  0  0  0  0
   39.9410   22.0160   39.1100 H   0  0  0  0  0  0  0  0  0  0  0  0
   40.0640   23.8720   35.2740 H   0  0  0  0  0  0  0  0  0  0  0  0
   41.6980   22.0270   36.8830 C   0  0  0  0  0  0  0  0  0  0  0  0
   42.7120   22.7250   36.2390 C   0  0  0  0  0  0  0  0  0  0  0  0
   43.8780   22.0140   36.0410 C   0  0  0  0  0  0  0  0  0  0  0  0
   44.0910   20.7290   36.4180 N   0  0  0  0  0  0  0  0  0  0  0  0
   43.0770   20.0980   37.0380 C   0  0  0  0  0  0  0  0  0  0  0  0
   41.9220   20.7620   37.2490 N   0  0  0  0  0  0  0  0  0  0  0  0
   42.6240   23.7450   35.9080 H   0  0  0  0  0  0  0  0  0  0  0  0
   44.7350   22.4630   35.5470 H   0  0  0  0  0  0  0  0  0  0  0  0
   43.0270   19.0830   37.4210 H   0  0  0  0  0  0  0  0  0  0  0  0
  1  2  2  0  0  0  0
  1 19  1  0  0  0  0
  3  1  1  0  0  0  0
  4  9  1  0  0  0  0
  4  3  2  0  0  0  0
  5  4  1  0  0  0  0
  6  5  2  0  0  0  0
  6  7  1  0  0  0  0
  7  8  2  0  0  0  0
  8  3  1  0  0  0  0
 10  5  1  0  0  0  0
 11 15  1  0  0  0  0
 11  7  1  0  0  0  0
 12 11  1  0  0  0  0
 13 16  1  0  0  0  0
 13 12  2  0  0  0  0
 14 12  1  0  0  0  0
 17 14  1  0  0  0  0
 18 14  1  0  0  0  0
 19 22  1  0  0  0  0
 20 25  1  0  0  0  0
 21 20  1  0  0  0  0
 22 21  2  0  0  0  0
 23 22  1  0  0  0  0
 23 24  2  0  0  0  0
 24 20  1  0  0  0  0
 26 23  1  0  0  0  0
 27 24  1  0  0  0  0
 27 32  1  0  0  0  0
 28 27  2  0  0  0  0
 29 28  1  0  0  0  0
 29 30  2  0  0  0  0
 30 31  1  0  0  0  0
 31 32  2  0  0  0  0
 31 35  1  0  0  0  0
 33 28  1  0  0  0  0
 34 29  1  0  0  0  0
M  END
>  <minimizedAffinity>
-6.09102345

>  <minimizedRMSD>
0.805482686

$$$$
