REMARK  Name = 
REMARK  5 active torsions:
REMARK  status: ('A' for Active; 'I' for Inactive)
REMARK    1  A    between atoms: C_2  and  C_7
REMARK    2  A    between atoms: C_3  and  C_11
REMARK    3  A    between atoms: C_11  and  C_12
REMARK    4  A    between atoms: C_12  and  C_13
REMARK    5  A    between atoms: C_15  and  N_26
REMARK                            x       y       z     vdW  Elec       q    Type
REMARK                         _______ _______ _______ _____ _____    ______ ____
ROOT
ATOM      1  C   UNL     1      39.011  25.091  35.690  0.00  0.00    +0.000 C 
ATOM      2  H   UNL     1      39.571  25.760  36.410  0.00  0.00    +0.000 HD
ATOM      3  H   UNL     1      38.748  25.781  34.859  0.00  0.00    +0.000 HD
ENDROOT
BRANCH   1   4
ATOM      4  C   UNL     1      37.774  24.653  36.490  0.00  0.00    +0.000 C 
ATOM      5  C   UNL     1      38.027  24.392  37.930  0.00  0.00    +0.000 C 
ATOM      6  C   UNL     1      37.558  23.336  36.972  0.00  0.00    +0.000 C 
ATOM      7  H   UNL     1      36.946  25.355  36.308  0.00  0.00    +0.000 HD
ATOM      8  H   UNL     1      37.272  24.772  38.687  0.00  0.00    +0.000 HD
ATOM      9  H   UNL     1      39.027  24.541  38.289  0.00  0.00    +0.000 HD
ATOM     10  H   UNL     1      37.981  22.427  37.200  0.00  0.00    +0.000 HD
BRANCH   6  11
ATOM     11  N   UNL     1      36.093  23.048  37.085  0.00  0.00    +0.000 N 
ATOM     12  C   UNL     1      35.758  22.416  38.301  0.00  0.00    +0.000 C 
ATOM     13  N   UNL     1      36.595  22.158  39.246  0.00  0.00    +0.000 NA
ATOM     14  N   UNL     1      34.387  22.052  38.459  0.00  0.00    +0.000 N 
ATOM     15  H   UNL     1      35.467  23.310  36.320  0.00  0.00    +0.000 HD
ATOM     16  H   UNL     1      36.294  21.696  40.109  0.00  0.00    +0.000 HD
ATOM     17  H   UNL     1      33.998  22.636  39.247  0.00  0.00    +0.000 HD
ATOM     18  H   UNL     1      33.665  21.419  38.065  0.00  0.00    +0.000 HD
ENDBRANCH   6  11
ENDBRANCH   1   4
BRANCH   1  19
ATOM     19  C   UNL     1      39.790  23.910  35.375  0.00  0.00    +0.000 C 
ATOM     20  H   UNL     1      39.230  23.034  35.555  0.00  0.00    +0.000 HD
ATOM     21  H   UNL     1      39.775  23.901  34.218  0.00  0.00    +0.000 HD
BRANCH  19  24
ATOM     22  C   UNL     1      43.120  23.333  36.542  0.00  0.00    +0.000 A 
ATOM     23  C   UNL     1      41.730  23.106  36.403  0.00  0.00    +0.000 A 
ATOM     24  C   UNL     1      41.174  24.042  35.626  0.00  0.00    +0.000 A 
ATOM     25  N   UNL     1      41.905  25.080  35.053  0.00  0.00    +0.000 NA
ATOM     26  C   UNL     1      43.203  25.228  35.227  0.00  0.00    +0.000 A 
ATOM     27  N   UNL     1      43.821  24.343  35.981  0.00  0.00    +0.000 NA
ATOM     28  H   UNL     1      43.774  22.674  37.146  0.00  0.00    +0.000 HD
ATOM     29  H   UNL     1      43.674  26.044  34.754  0.00  0.00    +0.000 HD
BRANCH  23  30
ATOM     30  C   UNL     1      41.238  21.968  37.084  0.00  0.00    +0.000 C 
ATOM     31  F   UNL     1      40.475  22.312  38.227  0.00  0.00    +0.000 F 
ATOM     32  F   UNL     1      42.032  21.184  37.834  0.00  0.00    +0.000 F 
ATOM     33  F   UNL     1      40.148  21.282  36.539  0.00  0.00    +0.000 F 
ENDBRANCH  23  30
ENDBRANCH  19  24
ENDBRANCH   1  19
TORSDOF 5
