REMARK  Name = 
REMARK  4 active torsions:
REMARK  status: ('A' for Active; 'I' for Inactive)
REMARK    1  A    between atoms: C_1  and  C_4
REMARK    2  A    between atoms: C_1  and  C_8
REMARK    3  A    between atoms: C_1  and  C_9
REMARK    4  A    between atoms: C_9  and  N_10
REMARK                            x       y       z     vdW  Elec       q    Type
REMARK                         _______ _______ _______ _____ _____    ______ ____
ROOT
ATOM      1  C   UNL     1      38.571  25.722  36.351  0.00  0.00    +0.000 C 
ATOM      2  H   UNL     1      39.679  25.706  36.135  0.00  0.00    +0.000 HD
ATOM      3  H   UNL     1      38.439  26.428  37.157  0.00  0.00    +0.000 HD
ENDROOT
BRANCH   1   4
ATOM      4  N   UNL     1      37.918  26.084  35.157  0.00  0.00    +0.000 N 
ATOM      5  C   UNL     1      37.646  25.466  33.993  0.00  0.00    +0.000 A 
ATOM      6  C   UNL     1      36.956  26.227  33.077  0.00  0.00    +0.000 A 
ATOM      7  N   UNL     1      36.791  27.387  33.714  0.00  0.00    +0.000 NA
ATOM      8  C   UNL     1      37.362  27.304  34.950  0.00  0.00    +0.000 A 
ATOM      9  H   UNL     1      37.949  24.436  33.789  0.00  0.00    +0.000 HD
ATOM     10  H   UNL     1      36.651  25.910  32.102  0.00  0.00    +0.000 HD
ATOM     11  N   UNL     1      37.372  28.395  35.899  0.00  0.00    +0.000 N 
ATOM     12  C   UNL     1      38.006  28.279  37.166  0.00  0.00    +0.000 C 
ATOM     13  N   UNL     1      39.112  27.632  37.230  0.00  0.00    +0.000 NA
ATOM     14  N   UNL     1      37.449  28.862  38.340  0.00  0.00    +0.000 N 
ATOM     15  H   UNL     1      36.905  29.317  35.690  0.00  0.00    +0.000 HD
ATOM     16  H   UNL     1      39.565  27.194  36.418  0.00  0.00    +0.000 HD
ATOM     17  H   UNL     1      38.070  29.058  39.166  0.00  0.00    +0.000 HD
ATOM     18  H   UNL     1      36.447  29.108  38.429  0.00  0.00    +0.000 HD
ENDBRANCH   1   4
BRANCH   1  19
ATOM     19  C   UNL     1      38.222  24.337  36.819  0.00  0.00    +0.000 C 
ATOM     20  H   UNL     1      37.355  24.022  36.204  0.00  0.00    +0.000 HD
BRANCH  19  23
ATOM     21  C   UNL     1      41.032  21.887  37.474  0.00  0.00    +0.000 A 
ATOM     22  C   UNL     1      39.980  22.772  37.752  0.00  0.00    +0.000 A 
ATOM     23  C   UNL     1      39.335  23.375  36.624  0.00  0.00    +0.000 A 
ATOM     24  N   UNL     1      39.773  23.061  35.358  0.00  0.00    +0.000 NA
ATOM     25  C   UNL     1      40.776  22.215  35.150  0.00  0.00    +0.000 A 
ATOM     26  N   UNL     1      41.404  21.629  36.228  0.00  0.00    +0.000 NA
ATOM     27  H   UNL     1      41.481  21.462  38.359  0.00  0.00    +0.000 HD
ATOM     28  H   UNL     1      39.645  23.011  38.753  0.00  0.00    +0.000 HD
ATOM     29  H   UNL     1      41.144  21.948  34.168  0.00  0.00    +0.000 HD
ENDBRANCH  19  23
BRANCH  19  30
ATOM     30  C   UNL     1      37.781  24.383  38.260  0.00  0.00    +0.000 C 
ATOM     31  H   UNL     1      38.460  25.000  38.884  0.00  0.00    +0.000 HD
ATOM     32  H   UNL     1      37.637  23.362  38.673  0.00  0.00    +0.000 HD
ATOM     33  H   UNL     1      36.797  24.913  38.314  0.00  0.00    +0.000 HD
ENDBRANCH  19  30
ENDBRANCH   1  19
TORSDOF 4
