
 OpenBabel03262518493D

 31 33  0  0  0  0  0  0  0  0999 V2000
   38.9680   21.1440   32.0060 C   0  0  0  0  0  0  0  0  0  0  0  0
   37.7920   21.3660   32.6470 C   0  0  0  0  0  0  0  0  0  0  0  0
   37.7750   21.8110   33.9480 C   0  0  0  0  0  0  0  0  0  0  0  0
   38.9310   22.0520   34.6530 C   0  0  0  0  0  0  0  0  0  0  0  0
   40.1510   21.8290   34.0010 C   0  0  0  0  0  0  0  0  0  0  0  0
   40.2000   21.3800   32.6940 C   0  0  0  0  0  0  0  0  0  0  0  0
   36.8370   21.9850   34.4540 H   0  0  0  0  0  0  0  0  0  0  0  0
   41.0630   22.0140   34.5430 H   0  0  0  0  0  0  0  0  0  0  0  0
   41.1580   21.2200   32.2220 H   0  0  0  0  0  0  0  0  0  0  0  0
   39.8390   22.9230   38.1030 C   0  0  0  0  0  0  0  0  0  0  0  0
   38.6790   23.4980   38.5950 C   0  0  0  0  0  0  0  0  0  0  0  0
   37.6050   23.5760   37.7310 C   0  0  0  0  0  0  0  0  0  0  0  0
   37.7290   23.0970   36.4660 N   0  0  0  0  0  0  0  0  0  0  0  0
   38.9040   22.5380   36.0360 C   0  0  0  0  0  0  0  0  0  0  0  0
   39.9410   22.4500   36.8320 N   0  0  0  0  0  0  0  0  0  0  0  0
   40.7050   22.8410   38.7440 H   0  0  0  0  0  0  0  0  0  0  0  0
   38.6380   23.8560   39.5950 H   0  0  0  0  0  0  0  0  0  0  0  0
   36.6880   24.0210   38.0930 H   0  0  0  0  0  0  0  0  0  0  0  0
   39.0030   20.4310   30.4600 S   0  0  0  0  0  0  0  0  0  0  0  0
   38.7690   21.5660   29.4200 O   0  0  0  0  0  0  0  0  0  0  0  0
   40.3770   19.8560   30.3020 O   0  0  0  0  0  0  0  0  0  0  0  0
   38.1810   19.2340   29.8130 C   0  0  0  0  0  0  0  0  0  0  0  0
   37.1590   19.1270   28.8660 C   0  0  0  0  0  0  0  0  0  0  0  0
   36.6860   17.9200   28.5760 C   0  0  0  0  0  0  0  0  0  0  0  0
   37.0870   16.7190   29.1040 C   0  0  0  0  0  0  0  0  0  0  0  0
   38.3820   17.3640   30.2390 S   0  0  0  0  0  0  0  0  0  0  0  0
   36.2330   21.1430   31.8240 S   0  0  0  0  0  0  0  0  0  0  0  0
   35.2780   19.7860   32.5240 C   0  0  0  0  0  0  0  0  0  0  0  0
   34.0680   19.6290   31.9070 F   0  0  0  0  0  0  0  0  0  0  0  0
   35.9820   18.6260   32.2730 F   0  0  0  0  0  0  0  0  0  0  0  0
   35.1890   19.8900   33.8850 F   0  0  0  0  0  0  0  0  0  0  0  0
  1  2  2  0  0  0  0
  1  6  1  0  0  0  0
  2  3  1  0  0  0  0
  3  7  1  0  0  0  0
  3  4  2  0  0  0  0
  4 14  1  0  0  0  0
  5  8  1  0  0  0  0
  5  4  1  0  0  0  0
  6  5  2  0  0  0  0
  9  6  1  0  0  0  0
 10 11  1  0  0  0  0
 10 16  1  0  0  0  0
 11 17  1  0  0  0  0
 12 18  1  0  0  0  0
 12 11  2  0  0  0  0
 13 12  1  0  0  0  0
 14 13  2  0  0  0  0
 14 15  1  0  0  0  0
 15 10  2  0  0  0  0
 19  1  1  0  0  0  0
 20 19  2  0  0  0  0
 21 19  2  0  0  0  0
 22 26  1  0  0  0  0
 22 19  1  0  0  0  0
 23 22  2  0  0  0  0
 24 23  1  0  0  0  0
 24 25  2  0  0  0  0
 25 26  1  0  0  0  0
 27 28  1  0  0  0  0
 27  2  1  0  0  0  0
 28 31  1  0  0  0  0
 29 28  1  0  0  0  0
 30 28  1  0  0  0  0
M  END
>  <minimizedAffinity>
-4.77310848

>  <minimizedRMSD>
2.00591779

$$$$
