
 OpenBabel03262517083D

 46 48  0  0  0  0  0  0  0  0999 V2000
   39.5560   23.0220   37.3350 C   0  0  0  0  0  0  0  0  0  0  0  0
   38.5100   23.3670   36.5140 C   0  0  0  0  0  0  0  0  0  0  0  0
   37.4750   23.6150   37.3450 N   0  0  0  0  0  0  0  0  0  0  0  0
   37.8820   23.4280   38.6080 C   0  0  0  0  0  0  0  0  0  0  0  0
   39.1580   23.0630   38.6380 N   0  0  0  0  0  0  0  0  0  0  0  0
   37.1940   23.5800   39.4180 H   0  0  0  0  0  0  0  0  0  0  0  0
   39.7360   22.8510   39.4720 H   0  0  0  0  0  0  0  0  0  0  0  0
   42.7260   21.1510   36.7780 C   0  0  0  0  0  0  0  0  0  0  0  0
   41.4420   21.4430   37.2290 C   0  0  0  0  0  0  0  0  0  0  0  0
   40.8910   22.6660   36.8880 C   0  0  0  0  0  0  0  0  0  0  0  0
   41.6560   23.5320   36.1140 N   0  0  0  0  0  0  0  0  0  0  0  0
   42.8980   23.2080   35.6980 C   0  0  0  0  0  0  0  0  0  0  0  0
   43.4210   22.0230   36.0320 N   0  0  0  0  0  0  0  0  0  0  0  0
   43.0810   20.1710   37.0900 H   0  0  0  0  0  0  0  0  0  0  0  0
   40.8660   20.7560   37.8300 H   0  0  0  0  0  0  0  0  0  0  0  0
   43.6410   24.1300   34.9060 N   0  0  0  0  0  0  0  0  0  0  0  0
   44.2230   25.2770   35.5260 C   0  0  0  0  0  0  0  0  0  0  0  0
   44.0610   25.5540   36.7880 N   0  0  0  0  0  0  0  0  0  0  0  0
   45.0150   26.1360   34.6780 N   0  0  0  0  0  0  0  0  0  0  0  0
   43.7570   23.9640   33.8820 H   0  0  0  0  0  0  0  0  0  0  0  0
   44.5210   26.4140   37.1590 H   0  0  0  0  0  0  0  0  0  0  0  0
   45.9580   26.4950   34.4240 H   0  0  0  0  0  0  0  0  0  0  0  0
   45.9890   25.9470   35.0490 H   0  0  0  0  0  0  0  0  0  0  0  0
   38.4640   23.4610   35.0630 C   0  0  0  0  0  0  0  0  0  0  0  0
   38.2710   22.2700   34.4390 C   0  0  0  0  0  0  0  0  0  0  0  0
   38.1980   22.1620   33.0720 C   0  0  0  0  0  0  0  0  0  0  0  0
   38.3230   23.2990   32.2850 C   0  0  0  0  0  0  0  0  0  0  0  0
   38.5180   24.4870   32.9500 C   0  0  0  0  0  0  0  0  0  0  0  0
   38.6030   24.6610   34.3520 C   0  0  0  0  0  0  0  0  0  0  0  0
   38.1590   21.3140   34.9390 H   0  0  0  0  0  0  0  0  0  0  0  0
   38.0450   21.2340   32.5390 H   0  0  0  0  0  0  0  0  0  0  0  0
   38.2750   23.2790   31.2180 H   0  0  0  0  0  0  0  0  0  0  0  0
   38.6150   25.3720   32.3330 H   0  0  0  0  0  0  0  0  0  0  0  0
   38.8110   25.9190   35.0080 C   0  0  0  0  0  0  0  0  0  0  0  0
   38.2090   26.9490   34.0180 C   0  0  0  0  0  0  0  0  0  0  0  0
   37.1710   26.7350   33.7770 H   0  0  0  0  0  0  0  0  0  0  0  0
   38.2310   27.9290   34.5610 H   0  0  0  0  0  0  0  0  0  0  0  0
   38.8950   27.0900   33.1620 H   0  0  0  0  0  0  0  0  0  0  0  0
   38.2670   26.2670   36.3000 C   0  0  0  0  0  0  0  0  0  0  0  0
   39.0730   26.1250   37.0800 H   0  0  0  0  0  0  0  0  0  0  0  0
   37.2990   25.8120   36.6020 H   0  0  0  0  0  0  0  0  0  0  0  0
   38.0580   27.3720   36.3810 H   0  0  0  0  0  0  0  0  0  0  0  0
   40.3050   26.2240   34.9970 C   0  0  0  0  0  0  0  0  0  0  0  0
   40.8540   25.7530   35.8100 H   0  0  0  0  0  0  0  0  0  0  0  0
   40.6950   25.9840   33.9780 H   0  0  0  0  0  0  0  0  0  0  0  0
   40.3890   27.3250   35.1240 H   0  0  0  0  0  0  0  0  0  0  0  0
  1  5  1  0  0  0  0
  2  1  2  0  0  0  0
  2  3  1  0  0  0  0
  3  4  2  0  0  0  0
  4  5  1  0  0  0  0
  4  6  1  0  0  0  0
  5  7  1  0  0  0  0
  8 14  1  0  0  0  0
  8  9  1  0  0  0  0
  9 15  1  0  0  0  0
 10  9  2  0  0  0  0
 10  1  1  0  0  0  0
 11 10  1  0  0  0  0
 12 13  1  0  0  0  0
 12 11  2  0  0  0  0
 13  8  2  0  0  0  0
 16 17  1  0  0  0  0
 16 12  1  0  0  0  0
 17 18  2  0  0  0  0
 18 21  1  0  0  0  0
 19 23  1  0  0  0  0
 19 17  1  0  0  0  0
 20 16  1  0  0  0  0
 22 19  1  0  0  0  0
 24  2  1  0  0  0  0
 25 30  1  0  0  0  0
 25 24  1  0  0  0  0
 26 25  2  0  0  0  0
 27 28  2  0  0  0  0
 27 26  1  0  0  0  0
 28 29  1  0  0  0  0
 29 34  1  0  0  0  0
 29 24  2  0  0  0  0
 31 26  1  0  0  0  0
 32 27  1  0  0  0  0
 33 28  1  0  0  0  0
 34 39  1  0  0  0  0
 35 37  1  0  0  0  0
 35 34  1  0  0  0  0
 36 35  1  0  0  0  0
 38 35  1  0  0  0  0
 39 42  1  0  0  0  0
 39 41  1  0  0  0  0
 39 40  1  0  0  0  0
 43 34  1  0  0  0  0
 43 46  1  0  0  0  0
 43 44  1  0  0  0  0
 45 43  1  0  0  0  0
M  END
>  <minimizedAffinity>
-6.21947527

>  <minimizedRMSD>
1.86571348

$$$$
