REMARK  Name = 
REMARK  6 active torsions:
REMARK  status: ('A' for Active; 'I' for Inactive)
REMARK    1  A    between atoms: C_1  and  C_4
REMARK    2  A    between atoms: C_1  and  C_8
REMARK    3  A    between atoms: C_1  and  C_9
REMARK    4  A    between atoms: C_9  and  N_10
REMARK    5  A    between atoms: C_14  and  C_15
REMARK    6  A    between atoms: C_17  and  N_33
REMARK                            x       y       z     vdW  Elec       q    Type
REMARK                         _______ _______ _______ _____ _____    ______ ____
ROOT
ATOM      1  N   UNL     1      37.579  25.434  33.069  0.00  0.00    +0.000 N 
ATOM      2  C   UNL     1      37.051  24.328  32.545  0.00  0.00    +0.000 A 
ATOM      3  C   UNL     1      36.053  24.563  31.633  0.00  0.00    +0.000 A 
ATOM      4  N   UNL     1      35.957  25.893  31.590  0.00  0.00    +0.000 NA
ATOM      5  C   UNL     1      36.874  26.421  32.452  0.00  0.00    +0.000 A 
ATOM      6  H   UNL     1      37.413  23.330  32.844  0.00  0.00    +0.000 HD
ATOM      7  H   UNL     1      35.513  23.785  31.110  0.00  0.00    +0.000 HD
ENDROOT
BRANCH   5   8
ATOM      8  C   UNL     1      36.997  27.919  32.573  0.00  0.00    +0.000 C 
ATOM      9  C   UNL     1      35.858  28.726  32.082  0.00  0.00    +0.000 C 
ATOM     10  C   UNL     1      36.059  28.586  33.567  0.00  0.00    +0.000 C 
ATOM     11  H   UNL     1      38.012  28.346  32.478  0.00  0.00    +0.000 HD
ATOM     12  H   UNL     1      35.971  29.690  31.590  0.00  0.00    +0.000 HD
ATOM     13  H   UNL     1      34.947  28.152  31.739  0.00  0.00    +0.000 HD
ATOM     14  H   UNL     1      35.421  27.947  34.172  0.00  0.00    +0.000 HD
BRANCH  10  15
ATOM     15  N   UNL     1      36.610  29.787  34.162  0.00  0.00    +0.000 N 
ATOM     16  C   UNL     1      36.663  30.970  33.377  0.00  0.00    +0.000 C 
ATOM     17  N   UNL     1      36.663  30.952  32.086  0.00  0.00    +0.000 NA
ATOM     18  N   UNL     1      36.718  32.227  34.021  0.00  0.00    +0.000 N 
ATOM     19  H   UNL     1      36.976  29.832  35.151  0.00  0.00    +0.000 HD
ATOM     20  H   UNL     1      36.621  30.000  31.660  0.00  0.00    +0.000 HD
ATOM     21  H   UNL     1      36.761  33.144  34.514  0.00  0.00    +0.000 HD
ATOM     22  H   UNL     1      36.861  32.346  35.029  0.00  0.00    +0.000 HD
ENDBRANCH  10  15
ENDBRANCH   5   8
BRANCH   1  23
ATOM     23  C   UNL     1      38.587  25.711  34.025  0.00  0.00    +0.000 C 
ATOM     24  H   UNL     1      39.127  26.658  33.764  0.00  0.00    +0.000 HD
ATOM     25  H   UNL     1      39.368  24.920  33.986  0.00  0.00    +0.000 HD
BRANCH  23  26
ATOM     26  C   UNL     1      38.078  25.763  35.419  0.00  0.00    +0.000 C 
ATOM     27  H   UNL     1      36.979  25.566  35.419  0.00  0.00    +0.000 HD
BRANCH  26  30
ATOM     28  C   UNL     1      38.642  23.373  38.300  0.00  0.00    +0.000 A 
ATOM     29  C   UNL     1      38.034  24.408  37.564  0.00  0.00    +0.000 A 
ATOM     30  C   UNL     1      38.644  24.700  36.291  0.00  0.00    +0.000 A 
ATOM     31  N   UNL     1      39.749  23.988  35.860  0.00  0.00    +0.000 NA
ATOM     32  C   UNL     1      40.261  23.020  36.625  0.00  0.00    +0.000 A 
ATOM     33  N   UNL     1      39.708  22.711  37.846  0.00  0.00    +0.000 NA
ATOM     34  H   UNL     1      38.137  23.207  39.239  0.00  0.00    +0.000 HD
ATOM     35  H   UNL     1      37.183  24.985  37.852  0.00  0.00    +0.000 HD
ATOM     36  H   UNL     1      41.123  22.434  36.334  0.00  0.00    +0.000 HD
ENDBRANCH  26  30
BRANCH  26  37
ATOM     37  C   UNL     1      38.344  27.137  36.025  0.00  0.00    +0.000 C 
ATOM     38  H   UNL     1      39.157  27.668  35.498  0.00  0.00    +0.000 HD
ATOM     39  H   UNL     1      37.389  27.695  35.981  0.00  0.00    +0.000 HD
ATOM     40  H   UNL     1      38.549  26.977  37.104  0.00  0.00    +0.000 HD
ENDBRANCH  26  37
ENDBRANCH  23  26
ENDBRANCH   1  23
TORSDOF 6
