
     RDKit          3D

 40 42  0  0  0  0  0  0  0  0999 V2000
   38.0779   25.7628   35.4189 C   0  0  1  0  0  0  0  0  0  0  0  0
   38.6418   23.3727   38.3004 C   0  0  0  0  0  0  0  0  0  0  0  0
   38.0338   24.4084   37.5636 C   0  0  0  0  0  0  0  0  0  0  0  0
   38.6436   24.6998   36.2913 C   0  0  0  0  0  0  0  0  0  0  0  0
   39.7488   23.9875   35.8601 N   0  0  0  0  0  0  0  0  0  0  0  0
   40.2609   23.0199   36.6247 C   0  0  0  0  0  0  0  0  0  0  0  0
   39.7076   22.7113   37.8463 N   0  0  0  0  0  0  0  0  0  0  0  0
   38.3436   27.1368   36.0252 C   0  0  0  0  0  0  0  0  0  0  0  0
   38.5874   25.7109   34.0247 C   0  0  0  0  0  0  0  0  0  0  0  0
   37.5791   25.4340   33.0689 N   0  0  0  0  0  0  0  0  0  0  0  0
   37.0515   24.3275   32.5452 C   0  0  0  0  0  0  0  0  0  0  0  0
   36.0528   24.5627   31.6333 C   0  0  0  0  0  0  0  0  0  0  0  0
   35.9574   25.8931   31.5904 N   0  0  0  0  0  0  0  0  0  0  0  0
   36.8745   26.4214   32.4523 C   0  0  0  0  0  0  0  0  0  0  0  0
   36.9968   27.9194   32.5727 C   0  0  1  0  0  0  0  0  0  0  0  0
   35.8576   28.7263   32.0822 C   0  0  0  0  0  0  0  0  0  0  0  0
   36.0590   28.5864   33.5668 C   0  0  2  0  0  0  0  0  0  0  0  0
   36.9788   25.5659   35.4191 H   0  0  0  0  0  0  0  0  0  0  0  0
   38.1374   23.2073   39.2390 H   0  0  0  0  0  0  0  0  0  0  0  0
   37.1829   24.9855   37.8515 H   0  0  0  0  0  0  0  0  0  0  0  0
   41.1230   22.4336   36.3345 H   0  0  0  0  0  0  0  0  0  0  0  0
   39.1569   27.6682   35.4984 H   0  0  0  0  0  0  0  0  0  0  0  0
   37.3889   27.6947   35.9810 H   0  0  0  0  0  0  0  0  0  0  0  0
   38.5491   26.9765   37.1037 H   0  0  0  0  0  0  0  0  0  0  0  0
   39.1274   26.6577   33.7644 H   0  0  0  0  0  0  0  0  0  0  0  0
   39.3684   24.9199   33.9864 H   0  0  0  0  0  0  0  0  0  0  0  0
   37.4131   23.3301   32.8442 H   0  0  0  0  0  0  0  0  0  0  0  0
   35.5128   23.7852   31.1097 H   0  0  0  0  0  0  0  0  0  0  0  0
   38.0124   28.3455   32.4781 H   0  0  0  0  0  0  0  0  0  0  0  0
   35.9709   29.6899   31.5898 H   0  0  0  0  0  0  0  0  0  0  0  0
   34.9471   28.1525   31.7393 H   0  0  0  0  0  0  0  0  0  0  0  0
   35.4210   27.9465   34.1719 H   0  0  0  0  0  0  0  0  0  0  0  0
   36.6101   29.7869   34.1623 N   0  0  0  0  0  0  0  0  0  0  0  0
   36.6628   30.9695   33.3768 C   0  0  0  0  0  0  0  0  0  0  0  0
   36.6630   30.9516   32.0864 N   0  0  0  0  0  0  0  0  0  0  0  0
   36.7177   32.2273   34.0214 N   0  0  0  0  0  0  0  0  0  0  0  0
   36.9761   29.8321   35.1515 H   0  0  0  0  0  0  0  0  0  0  0  0
   36.6215   30.0004   31.6604 H   0  0  0  0  0  0  0  0  0  0  0  0
   36.7611   33.1444   34.5145 H   0  0  0  0  0  0  0  0  0  0  0  0
   36.8612   32.3463   35.0286 H   0  0  0  0  0  0  0  0  0  0  0  0
  1  8  1  0
  1  4  1  0
  3  2  2  0
  4  3  1  0
  5  4  2  0
  5  6  1  0
  6  7  2  0
  7  2  1  0
  9  1  1  0
 10  9  1  0
 11 10  1  0
 12 11  2  0
 13 12  1  0
 13 14  2  0
 14 15  1  0
 14 10  1  0
 15 17  1  0
 16 15  1  0
 16 17  1  0
  1 18  1  6
  2 19  1  0
  3 20  1  0
  6 21  1  0
  8 22  1  0
  8 23  1  0
  8 24  1  0
  9 25  1  0
  9 26  1  0
 11 27  1  0
 12 28  1  0
 15 29  1  6
 16 30  1  0
 16 31  1  0
 17 32  1  1
 33 34  1  0
 34 35  2  3
 34 36  1  0
 33 37  1  0
 35 38  1  0
 36 39  1  0
 36 40  1  0
 17 33  1  0
M  ISO  8  18   8  19  14  20  14  21  14  22   8  23   8  24   8  25   8
M  ISO  7  26   8  27  14  28  14  29  13  30  13  31  13  32  13
M  END
>  <DihAtoms>  (1) 
14,16,32,33

>  <DihDeg>  (1) 
-179.99013571447801

$$$$
