
 OpenBabel03262519423D

 26 26  0  0  1  0  0  0  0  0999 V2000
   38.0900   24.2700   37.0630 C   0  0  1  0  0  0  0  0  0  0  0  0
   37.2090   23.8530   36.5310 H   0  0  0  0  0  0  0  0  0  0  0  0
   41.0180   21.8910   37.4340 C   0  0  0  0  0  0  0  0  0  0  0  0
   39.9460   22.7480   37.7790 C   0  0  0  0  0  0  0  0  0  0  0  0
   39.2150   23.3570   36.7540 C   0  0  0  0  0  0  0  0  0  0  0  0
   39.5650   23.1000   35.4380 N   0  0  0  0  0  0  0  0  0  0  0  0
   40.5940   22.2760   35.1550 C   0  0  0  0  0  0  0  0  0  0  0  0
   41.3230   21.6700   36.1340 N   0  0  0  0  0  0  0  0  0  0  0  0
   41.6160   21.3920   38.1770 H   0  0  0  0  0  0  0  0  0  0  0  0
   39.7200   22.9090   38.8130 H   0  0  0  0  0  0  0  0  0  0  0  0
   40.7340   22.1840   34.0940 H   0  0  0  0  0  0  0  0  0  0  0  0
   37.8780   24.4120   38.5520 C   0  0  0  0  0  0  0  0  0  0  0  0
   37.2210   25.3070   38.7490 H   0  0  0  0  0  0  0  0  0  0  0  0
   37.3670   23.5570   39.0160 H   0  0  0  0  0  0  0  0  0  0  0  0
   38.8380   24.6950   39.0560 H   0  0  0  0  0  0  0  0  0  0  0  0
   38.2590   25.6530   36.4520 C   0  0  0  0  0  0  0  0  0  0  0  0
   39.3450   25.7980   36.3030 H   0  0  0  0  0  0  0  0  0  0  0  0
   37.8450   26.4560   37.0700 H   0  0  0  0  0  0  0  0  0  0  0  0
   37.6440   25.5890   35.1350 N   0  0  0  0  0  0  0  0  0  0  0  0
   38.3880   26.1800   34.0810 C   0  0  0  0  0  0  0  0  0  0  0  0
   39.3160   27.0570   34.3660 N   0  0  0  0  0  0  0  0  0  0  0  0
   38.1850   25.8770   32.7010 N   0  0  0  0  0  0  0  0  0  0  0  0
   36.7230   25.1550   34.8890 H   0  0  0  0  0  0  0  0  0  0  0  0
   39.8840   27.5140   33.6280 H   0  0  0  0  0  0  0  0  0  0  0  0
   37.2060   25.8340   32.2860 H   0  0  0  0  0  0  0  0  0  0  0  0
   39.0630   25.7010   32.1300 H   0  0  0  0  0  0  0  0  0  0  0  0
  1  2  1  6  0  0  0
  1 12  1  0  0  0  0
  3  4  1  0  0  0  0
  3  9  1  0  0  0  0
  4 10  1  0  0  0  0
  5  1  1  0  0  0  0
  5  4  2  0  0  0  0
  6  5  1  0  0  0  0
  7  6  2  0  0  0  0
  7  8  1  0  0  0  0
  8  3  2  0  0  0  0
 11  7  1  0  0  0  0
 12 13  1  0  0  0  0
 12 14  1  0  0  0  0
 12 15  1  0  0  0  0
 16  1  1  0  0  0  0
 16 18  1  0  0  0  0
 17 16  1  0  0  0  0
 19 16  1  0  0  0  0
 20 21  2  0  0  0  0
 20 19  1  0  0  0  0
 22 20  1  0  0  0  0
 23 19  1  0  0  0  0
 24 21  1  0  0  0  0
 25 22  1  0  0  0  0
 26 22  1  0  0  0  0
M  END
>  <minimizedAffinity>
-3.51035213

>  <minimizedRMSD>
1.73194897

$$$$
