
     RDKit          3D

 26 26  0  0  0  0  0  0  0  0999 V2000
   41.0459   21.9070   37.4463 C   0  0  0  0  0  0  0  0  0  0  0  0
   39.9568   22.7449   37.7863 C   0  0  0  0  0  0  0  0  0  0  0  0
   39.1905   23.3039   36.7585 C   0  0  0  0  0  0  0  0  0  0  0  0
   39.5249   23.0178   35.4442 N   0  0  0  0  0  0  0  0  0  0  0  0
   40.5708   22.2147   35.1649 C   0  0  0  0  0  0  0  0  0  0  0  0
   41.3337   21.6569   36.1479 N   0  0  0  0  0  0  0  0  0  0  0  0
   38.0470   24.1941   37.0617 C   0  0  1  0  0  0  0  0  0  0  0  0
   37.8820   24.4053   38.5491 C   0  0  0  0  0  0  0  0  0  0  0  0
   38.1484   25.5485   36.3772 C   0  0  0  0  0  0  0  0  0  0  0  0
   41.6710   21.4464   38.1924 H   0  0  0  0  0  0  0  0  0  0  0  0
   39.7451   22.9290   38.8187 H   0  0  0  0  0  0  0  0  0  0  0  0
   40.6949   22.0956   34.1050 H   0  0  0  0  0  0  0  0  0  0  0  0
   37.1626   23.7223   36.5842 H   0  0  0  0  0  0  0  0  0  0  0  0
   37.2017   25.2878   38.7242 H   0  0  0  0  0  0  0  0  0  0  0  0
   37.4169   23.5592   39.0730 H   0  0  0  0  0  0  0  0  0  0  0  0
   38.8493   24.7450   39.0033 H   0  0  0  0  0  0  0  0  0  0  0  0
   38.0707   25.3569   35.2908 H   0  0  0  0  0  0  0  0  0  0  0  0
   39.0734   26.0868   36.6091 H   0  0  0  0  0  0  0  0  0  0  0  0
   36.9585   26.2887   36.7725 N   0  0  0  0  0  0  0  0  0  0  0  0
   36.5859   27.3558   35.9141 C   0  0  0  0  0  0  0  0  0  0  0  0
   37.4772   27.8646   35.1028 N   0  0  0  0  0  0  0  0  0  0  0  0
   35.2773   27.9228   35.8773 N   0  0  0  0  0  0  0  0  0  0  0  0
   36.3582   26.1156   37.6133 H   0  0  0  0  0  0  0  0  0  0  0  0
   37.2487   28.6449   34.4581 H   0  0  0  0  0  0  0  0  0  0  0  0
   34.7588   28.1673   36.7736 H   0  0  0  0  0  0  0  0  0  0  0  0
   34.8650   28.0803   34.9111 H   0  0  0  0  0  0  0  0  0  0  0  0
  1  2  2  0
  3  7  1  0
  3  2  1  0
  4  3  2  0
  5  4  1  0
  5  6  2  0
  6  1  1  0
  7  8  1  0
  9  7  1  0
  1 10  1  0
  2 11  1  0
  5 12  1  0
  7 13  1  6
  8 14  1  0
  8 15  1  0
  8 16  1  0
  9 17  1  0
  9 18  1  0
 19 20  1  0
 20 21  2  3
 20 22  1  0
 19 23  1  0
 21 24  1  0
 22 25  1  0
 22 26  1  0
  9 19  1  0
M  ISO  8  10  14  11  14  12  14  13   8  14   8  15   8  16   8  17   8
M  ISO  1  18   8
M  END
>  <DihAtoms>  (1) 
6,8,18,19

>  <DihDeg>  (1) 
-68.23986216172852

$$$$
