
 OpenBabel03262519383D

 28 29  0  0  1  0  0  0  0  0999 V2000
   37.6050   25.3340   34.1340 N   0  0  0  0  0  0  0  0  0  0  0  0
   37.0470   25.3640   32.8080 C   0  0  0  0  0  0  0  0  0  0  0  0
   36.8080   26.8150   32.4990 C   0  0  0  0  0  0  0  0  0  0  0  0
   37.3190   27.5510   33.7240 C   0  0  0  0  0  0  0  0  0  0  0  0
   38.3940   26.5270   34.1890 C   0  0  2  0  0  0  0  0  0  0  0  0
   37.7230   24.8840   32.0610 H   0  0  0  0  0  0  0  0  0  0  0  0
   36.0840   24.8340   32.7970 H   0  0  0  0  0  0  0  0  0  0  0  0
   37.4390   27.1220   31.6460 H   0  0  0  0  0  0  0  0  0  0  0  0
   35.7340   27.0370   32.3270 H   0  0  0  0  0  0  0  0  0  0  0  0
   36.5690   27.5950   34.5230 H   0  0  0  0  0  0  0  0  0  0  0  0
   37.7650   28.5200   33.4850 H   0  0  0  0  0  0  0  0  0  0  0  0
   38.5860   26.7880   35.2490 H   0  0  0  0  0  0  0  0  0  0  0  0
   38.4810   24.2390   34.3590 C   0  0  0  0  0  0  0  0  0  0  0  0
   37.9620   23.3270   33.9360 H   0  0  0  0  0  0  0  0  0  0  0  0
   39.4500   24.2650   33.8550 H   0  0  0  0  0  0  0  0  0  0  0  0
   37.8780   24.0220   38.0940 C   0  0  0  0  0  0  0  0  0  0  0  0
   37.6980   24.3570   36.7480 C   0  0  0  0  0  0  0  0  0  0  0  0
   38.6230   23.9120   35.8140 C   0  0  0  0  0  0  0  0  0  0  0  0
   39.6880   23.1520   36.2650 N   0  0  0  0  0  0  0  0  0  0  0  0
   39.8270   22.8520   37.5610 C   0  0  0  0  0  0  0  0  0  0  0  0
   38.9210   23.2900   38.4660 N   0  0  0  0  0  0  0  0  0  0  0  0
   37.1500   24.3750   38.8150 H   0  0  0  0  0  0  0  0  0  0  0  0
   36.8560   24.9520   36.4160 H   0  0  0  0  0  0  0  0  0  0  0  0
   40.7090   22.2520   37.7570 H   0  0  0  0  0  0  0  0  0  0  0  0
   39.4740   26.5390   33.3690 O   0  0  0  0  0  0  0  0  0  0  0  0
   40.6180   27.1210   33.8270 C   0  0  0  0  0  0  0  0  0  0  0  0
   41.5150   26.2850   34.6720 C   0  0  0  0  0  0  0  0  0  0  0  0
   41.4380   27.4530   32.5590 C   0  0  0  0  0  0  0  0  0  0  0  0
  1  5  1  0  0  0  0
  1 13  1  0  0  0  0
  2  1  1  0  0  0  0
  3  2  1  0  0  0  0
  3  4  1  0  0  0  0
  4  5  1  0  0  0  0
  4 10  1  0  0  0  0
  5 12  1  1  0  0  0
  6  2  1  0  0  0  0
  7  2  1  0  0  0  0
  8  3  1  0  0  0  0
  9  3  1  0  0  0  0
 11  4  1  0  0  0  0
 13 18  1  0  0  0  0
 14 13  1  0  0  0  0
 15 13  1  0  0  0  0
 16 21  1  0  0  0  0
 16 22  1  0  0  0  0
 17 16  2  0  0  0  0
 18 19  2  0  0  0  0
 18 17  1  0  0  0  0
 19 20  1  0  0  0  0
 20 24  1  0  0  0  0
 20 21  2  0  0  0  0
 23 17  1  0  0  0  0
 25 26  1  0  0  0  0
 25  5  1  0  0  0  0
 26 27  1  0  0  0  0
 28 26  1  0  0  0  0
M  END
>  <minimizedAffinity>
-3.92446637

>  <minimizedRMSD>
0.635988176

$$$$
