REMARK  Name = 
REMARK  4 active torsions:
REMARK  status: ('A' for Active; 'I' for Inactive)
REMARK    1  A    between atoms: C_1  and  C_6
REMARK    2  A    between atoms: N_5  and  C_12
REMARK    3  A    between atoms: C_14  and  C_15
REMARK    4  A    between atoms: C_14  and  N_27
REMARK                            x       y       z     vdW  Elec       q    Type
REMARK                         _______ _______ _______ _____ _____    ______ ____
ROOT
ATOM      1  C   UNL     1      38.531  23.950  35.899  0.00  0.00    +0.000 C 
ATOM      2  C   UNL     1      38.071  25.229  36.364  0.00  0.00    +0.000 C 
ATOM      3  C   UNL     1      37.550  23.914  37.029  0.00  0.00    +0.000 C 
ATOM      4  H   UNL     1      39.616  23.717  36.162  0.00  0.00    +0.000 HD
ATOM      5  H   UNL     1      38.701  25.893  36.989  0.00  0.00    +0.000 HD
ATOM      6  H   UNL     1      37.325  25.764  35.791  0.00  0.00    +0.000 HD
ENDROOT
BRANCH   3   7
ATOM      7  N   UNL     1      36.097  23.947  36.985  0.00  0.00    +0.000 N 
ATOM      8  C   UNL     1      35.093  24.869  37.385  0.00  0.00    +0.000 C 
ATOM      9  N   UNL     1      35.457  25.271  38.584  0.00  0.00    +0.000 NA
ATOM     10  N   UNL     1      34.060  25.046  36.398  0.00  0.00    +0.000 N 
ATOM     11  H   UNL     1      35.898  23.003  36.510  0.00  0.00    +0.000 HD
ATOM     12  H   UNL     1      34.919  25.955  39.145  0.00  0.00    +0.000 HD
ATOM     13  H   UNL     1      34.074  26.069  36.187  0.00  0.00    +0.000 HD
ATOM     14  H   UNL     1      33.568  24.160  36.139  0.00  0.00    +0.000 HD
ENDBRANCH   3   7
BRANCH   1  19
ATOM     15  C   UNL     1      37.871  23.698  33.503  0.00  0.00    +0.000 A 
ATOM     16  C   UNL     1      37.470  22.658  32.666  0.00  0.00    +0.000 A 
ATOM     17  N   UNL     1      37.485  21.563  33.482  0.00  0.00    +0.000 NA
ATOM     18  C   UNL     1      37.868  21.966  34.694  0.00  0.00    +0.000 A 
ATOM     19  N   UNL     1      38.110  23.272  34.729  0.00  0.00    +0.000 N 
ATOM     20  H   UNL     1      37.207  22.695  31.621  0.00  0.00    +0.000 HD
ATOM     21  H   UNL     1      37.938  21.213  35.483  0.00  0.00    +0.000 HD
BRANCH  15  22
ATOM     22  C   UNL     1      38.017  25.080  33.078  0.00  0.00    +0.000 A 
ATOM     23  C   UNL     1      39.298  25.584  32.770  0.00  0.00    +0.000 A 
ATOM     24  C   UNL     1      39.393  26.932  32.358  0.00  0.00    +0.000 A 
ATOM     25  N   UNL     1      38.241  27.651  32.288  0.00  0.00    +0.000 NA
ATOM     26  C   UNL     1      37.031  27.128  32.593  0.00  0.00    +0.000 A 
ATOM     27  N   UNL     1      36.909  25.855  32.986  0.00  0.00    +0.000 NA
ATOM     28  H   UNL     1      40.181  24.966  32.844  0.00  0.00    +0.000 HD
ATOM     29  H   UNL     1      40.349  27.360  32.113  0.00  0.00    +0.000 HD
ATOM     30  H   UNL     1      36.115  27.684  32.542  0.00  0.00    +0.000 HD
ENDBRANCH  15  22
ENDBRANCH   1  19
BRANCH   3  31
ATOM     31  C   UNL     1      38.129  23.768  38.427  0.00  0.00    +0.000 C 
ATOM     32  F   UNL     1      37.521  22.703  39.067  0.00  0.00    +0.000 F 
ATOM     33  F   UNL     1      39.515  23.345  38.302  0.00  0.00    +0.000 F 
ATOM     34  F   UNL     1      38.139  24.902  39.140  0.00  0.00    +0.000 F 
ENDBRANCH   3  31
TORSDOF 4
