
 OpenBabel03262518583D

 36 38  0  0  0  0  0  0  0  0999 V2000
   37.6620   27.4440   35.4200 C   0  0  0  0  0  0  0  0  0  0  0  0
   37.0580   27.2350   36.2960 H   0  0  0  0  0  0  0  0  0  0  0  0
   38.1180   28.4640   35.6850 H   0  0  0  0  0  0  0  0  0  0  0  0
   38.8610   26.6350   35.2090 C   0  0  0  0  0  0  0  0  0  0  0  0
   39.9790   27.0990   34.5480 C   0  0  0  0  0  0  0  0  0  0  0  0
   41.0880   26.3130   34.3920 C   0  0  0  0  0  0  0  0  0  0  0  0
   41.1350   25.0190   34.8890 C   0  0  0  0  0  0  0  0  0  0  0  0
   40.0180   24.5390   35.5540 C   0  0  0  0  0  0  0  0  0  0  0  0
   40.0490   23.2490   36.0580 C   0  0  0  0  0  0  0  0  0  0  0  0
   38.9660   22.7210   36.7290 C   0  0  0  0  0  0  0  0  0  0  0  0
   37.8400   23.5180   36.8870 C   0  0  0  0  0  0  0  0  0  0  0  0
   37.8330   24.7910   36.3800 C   0  0  0  0  0  0  0  0  0  0  0  0
   38.9050   25.3510   35.7010 C   0  0  0  0  0  0  0  0  0  0  0  0
   39.9630   28.1030   34.1540 H   0  0  0  0  0  0  0  0  0  0  0  0
   41.9560   26.6780   33.8760 H   0  0  0  0  0  0  0  0  0  0  0  0
   42.0200   24.4160   34.7540 H   0  0  0  0  0  0  0  0  0  0  0  0
   40.9530   22.6530   35.9140 H   0  0  0  0  0  0  0  0  0  0  0  0
   39.0650   21.7130   37.0920 H   0  0  0  0  0  0  0  0  0  0  0  0
   37.0070   23.0780   37.4160 H   0  0  0  0  0  0  0  0  0  0  0  0
   36.9100   25.3200   36.5540 H   0  0  0  0  0  0  0  0  0  0  0  0
   35.3660   29.0570   33.0540 C   0  0  0  0  0  0  0  0  0  0  0  0
   35.4590   28.2870   31.9070 C   0  0  0  0  0  0  0  0  0  0  0  0
   36.3220   27.1750   31.9310 C   0  0  0  0  0  0  0  0  0  0  0  0
   37.0190   26.9190   33.0870 N   0  0  0  0  0  0  0  0  0  0  0  0
   36.8970   27.6890   34.1650 C   0  0  0  0  0  0  0  0  0  0  0  0
   36.0790   28.7470   34.1500 N   0  0  0  0  0  0  0  0  0  0  0  0
   34.7040   29.9150   33.0490 H   0  0  0  0  0  0  0  0  0  0  0  0
   34.8980   28.5230   31.0430 H   0  0  0  0  0  0  0  0  0  0  0  0
   36.5160   26.3170   30.8430 N   0  0  0  0  0  0  0  0  0  0  0  0
   36.5800   24.9050   30.9470 C   0  0  0  0  0  0  0  0  0  0  0  0
   35.6880   24.3490   31.7100 N   0  0  0  0  0  0  0  0  0  0  0  0
   37.5900   24.1700   30.2300 N   0  0  0  0  0  0  0  0  0  0  0  0
   36.6300   26.7210   29.8790 H   0  0  0  0  0  0  0  0  0  0  0  0
   35.6930   23.3150   31.8200 H   0  0  0  0  0  0  0  0  0  0  0  0
   38.5390   23.9890   30.6580 H   0  0  0  0  0  0  0  0  0  0  0  0
   37.2850   23.8550   29.2950 H   0  0  0  0  0  0  0  0  0  0  0  0
  1  3  1  0  0  0  0
  1  2  1  0  0  0  0
  4  1  1  0  0  0  0
  4 13  1  0  0  0  0
  5  4  2  0  0  0  0
  6  5  1  0  0  0  0
  6  7  2  0  0  0  0
  7  8  1  0  0  0  0
  8 13  2  0  0  0  0
  8  9  1  0  0  0  0
  9 10  2  0  0  0  0
 10 11  1  0  0  0  0
 10 18  1  0  0  0  0
 11 19  1  0  0  0  0
 12 20  1  0  0  0  0
 12 11  2  0  0  0  0
 13 12  1  0  0  0  0
 14  5  1  0  0  0  0
 15  6  1  0  0  0  0
 16  7  1  0  0  0  0
 17  9  1  0  0  0  0
 21 26  1  0  0  0  0
 22 23  1  0  0  0  0
 22 21  2  0  0  0  0
 23 24  2  0  0  0  0
 24 25  1  0  0  0  0
 25  1  1  0  0  0  0
 26 25  2  0  0  0  0
 27 21  1  0  0  0  0
 28 22  1  0  0  0  0
 29 30  1  0  0  0  0
 29 23  1  0  0  0  0
 30 31  2  0  0  0  0
 31 34  1  0  0  0  0
 32 35  1  0  0  0  0
 32 30  1  0  0  0  0
 33 29  1  0  0  0  0
 36 32  1  0  0  0  0
M  END
>  <minimizedAffinity>
-5.9118104

>  <minimizedRMSD>
1.11929703

$$$$
