
 OpenBabel03262519553D

 31 33  0  0  1  0  0  0  0  0999 V2000
   38.1520   24.0160   34.7180 C   0  0  0  0  0  0  0  0  0  0  0  0
   38.2550   25.2780   34.1330 C   0  0  0  0  0  0  0  0  0  0  0  0
   37.8690   25.0530   32.8380 N   0  0  0  0  0  0  0  0  0  0  0  0
   37.5750   23.7710   32.7120 C   0  0  0  0  0  0  0  0  0  0  0  0
   37.7380   23.0870   33.8650 N   0  0  0  0  0  0  0  0  0  0  0  0
   38.5600   26.2110   34.5730 H   0  0  0  0  0  0  0  0  0  0  0  0
   37.2400   23.3640   31.7540 H   0  0  0  0  0  0  0  0  0  0  0  0
   38.4600   23.7360   36.1100 C   0  0  0  0  0  0  0  0  0  0  0  0
   39.6670   23.1250   36.4650 C   0  0  0  0  0  0  0  0  0  0  0  0
   39.9120   22.8770   37.8330 C   0  0  0  0  0  0  0  0  0  0  0  0
   38.9660   23.2430   38.7190 N   0  0  0  0  0  0  0  0  0  0  0  0
   37.8080   23.8320   38.3560 C   0  0  0  0  0  0  0  0  0  0  0  0
   37.5450   24.0820   37.0580 N   0  0  0  0  0  0  0  0  0  0  0  0
   40.3920   22.8490   35.7180 H   0  0  0  0  0  0  0  0  0  0  0  0
   40.8140   22.4150   38.1520 H   0  0  0  0  0  0  0  0  0  0  0  0
   37.0350   24.1340   39.0530 H   0  0  0  0  0  0  0  0  0  0  0  0
   37.4910   21.6850   34.0090 C   0  0  1  0  0  0  0  0  0  0  0  0
   36.2920   21.1740   34.6820 C   0  0  0  0  0  0  0  0  0  0  0  0
   36.3210   21.1960   33.1580 C   0  0  2  0  0  0  0  0  0  0  0  0
   38.3920   21.0370   34.0100 H   0  0  0  0  0  0  0  0  0  0  0  0
   36.3700   20.2380   35.2330 H   0  0  0  0  0  0  0  0  0  0  0  0
   35.5290   21.8550   35.1000 H   0  0  0  0  0  0  0  0  0  0  0  0
   35.7100   21.9170   32.6200 H   0  0  0  0  0  0  0  0  0  0  0  0
   36.4120   19.8550   32.6080 N   0  0  0  0  0  0  0  0  0  0  0  0
   36.5280   19.7320   31.1960 C   0  0  0  0  0  0  0  0  0  0  0  0
   37.1530   20.6010   30.4860 N   0  0  0  0  0  0  0  0  0  0  0  0
   35.9490   18.6210   30.4870 N   0  0  0  0  0  0  0  0  0  0  0  0
   36.3980   18.9710   33.1630 H   0  0  0  0  0  0  0  0  0  0  0  0
   37.6260   21.4510   30.8190 H   0  0  0  0  0  0  0  0  0  0  0  0
   35.0730   18.0990   30.2780 H   0  0  0  0  0  0  0  0  0  0  0  0
   36.5540   17.9960   29.8940 H   0  0  0  0  0  0  0  0  0  0  0  0
  1  8  1  0  0  0  0
  2  6  1  0  0  0  0
  2  1  2  0  0  0  0
  3  2  1  0  0  0  0
  4  3  2  0  0  0  0
  4  5  1  0  0  0  0
  5 17  1  0  0  0  0
  5  1  1  0  0  0  0
  7  4  1  0  0  0  0
  8  9  2  0  0  0  0
  8 13  1  0  0  0  0
  9 10  1  0  0  0  0
 10 15  1  0  0  0  0
 10 11  2  0  0  0  0
 12 11  1  0  0  0  0
 12 16  1  0  0  0  0
 13 12  2  0  0  0  0
 14  9  1  0  0  0  0
 17 20  1  1  0  0  0
 17 18  1  0  0  0  0
 18 22  1  0  0  0  0
 18 21  1  0  0  0  0
 19 23  1  6  0  0  0
 19 17  1  0  0  0  0
 19 18  1  0  0  0  0
 24 19  1  0  0  0  0
 24 28  1  0  0  0  0
 25 24  1  0  0  0  0
 26 29  1  0  0  0  0
 26 25  2  0  0  0  0
 27 25  1  0  0  0  0
 30 27  1  0  0  0  0
 31 27  1  0  0  0  0
M  END
>  <minimizedAffinity>
-4.40766716

>  <minimizedRMSD>
1.7129488

$$$$
