
 OpenBabel03262519543D

 31 33  0  0  1  0  0  0  0  0999 V2000
   38.0720   23.4880   34.7670 C   0  0  0  0  0  0  0  0  0  0  0  0
   38.3390   24.5540   33.9080 C   0  0  0  0  0  0  0  0  0  0  0  0
   37.8480   24.1150   32.7050 N   0  0  0  0  0  0  0  0  0  0  0  0
   37.3510   22.9040   32.8810 C   0  0  0  0  0  0  0  0  0  0  0  0
   37.4710   22.4740   34.1570 N   0  0  0  0  0  0  0  0  0  0  0  0
   38.8110   25.4980   34.1170 H   0  0  0  0  0  0  0  0  0  0  0  0
   36.9020   22.3560   32.0480 H   0  0  0  0  0  0  0  0  0  0  0  0
   38.4120   23.4760   36.1790 C   0  0  0  0  0  0  0  0  0  0  0  0
   39.5880   22.8640   36.6260 C   0  0  0  0  0  0  0  0  0  0  0  0
   39.8650   22.8840   38.0090 C   0  0  0  0  0  0  0  0  0  0  0  0
   38.9800   23.4900   38.8220 N   0  0  0  0  0  0  0  0  0  0  0  0
   37.8500   24.0750   38.3710 C   0  0  0  0  0  0  0  0  0  0  0  0
   37.5580   24.0730   37.0550 N   0  0  0  0  0  0  0  0  0  0  0  0
   40.2660   22.3900   35.9360 H   0  0  0  0  0  0  0  0  0  0  0  0
   40.7460   22.4330   38.3970 H   0  0  0  0  0  0  0  0  0  0  0  0
   37.1250   24.5680   39.0080 H   0  0  0  0  0  0  0  0  0  0  0  0
   37.0160   21.2000   34.6210 C   0  0  1  0  0  0  0  0  0  0  0  0
   35.8520   21.0670   35.5030 C   0  0  0  0  0  0  0  0  0  0  0  0
   35.6750   20.7880   34.0140 C   0  0  2  0  0  0  0  0  0  0  0  0
   37.7880   20.4050   34.6710 H   0  0  0  0  0  0  0  0  0  0  0  0
   35.8470   20.2570   36.2310 H   0  0  0  0  0  0  0  0  0  0  0  0
   35.2760   21.9480   35.8390 H   0  0  0  0  0  0  0  0  0  0  0  0
   35.1250   21.4950   33.3980 H   0  0  0  0  0  0  0  0  0  0  0  0
   35.4660   19.3750   33.7580 N   0  0  0  0  0  0  0  0  0  0  0  0
   35.4110   18.9550   32.4000 C   0  0  0  0  0  0  0  0  0  0  0  0
   36.1030   19.5260   31.4820 N   0  0  0  0  0  0  0  0  0  0  0  0
   34.5710   17.8630   31.9840 N   0  0  0  0  0  0  0  0  0  0  0  0
   35.3530   18.6380   34.4890 H   0  0  0  0  0  0  0  0  0  0  0  0
   36.7520   20.3160   31.5950 H   0  0  0  0  0  0  0  0  0  0  0  0
   33.5980   17.4930   31.9500 H   0  0  0  0  0  0  0  0  0  0  0  0
   34.9890   17.0270   31.5000 H   0  0  0  0  0  0  0  0  0  0  0  0
  1  8  1  0  0  0  0
  2  6  1  0  0  0  0
  2  1  2  0  0  0  0
  3  4  2  0  0  0  0
  3  2  1  0  0  0  0
  4  5  1  0  0  0  0
  5 17  1  0  0  0  0
  5  1  1  0  0  0  0
  7  4  1  0  0  0  0
  8  9  2  0  0  0  0
  8 13  1  0  0  0  0
  9 10  1  0  0  0  0
 10 15  1  0  0  0  0
 10 11  2  0  0  0  0
 12 11  1  0  0  0  0
 12 16  1  0  0  0  0
 13 12  2  0  0  0  0
 14  9  1  0  0  0  0
 17 20  1  1  0  0  0
 17 18  1  0  0  0  0
 18 22  1  0  0  0  0
 18 21  1  0  0  0  0
 19 23  1  6  0  0  0
 19 17  1  0  0  0  0
 19 18  1  0  0  0  0
 24 19  1  0  0  0  0
 24 28  1  0  0  0  0
 25 24  1  0  0  0  0
 26 29  1  0  0  0  0
 26 25  2  0  0  0  0
 27 25  1  0  0  0  0
 30 27  1  0  0  0  0
 31 27  1  0  0  0  0
M  END
>  <minimizedAffinity>
-4.88316917

>  <minimizedRMSD>
0.35068658

$$$$
