
 OpenBabel03262519543D

 31 33  0  0  1  0  0  0  0  0999 V2000
   38.0660   23.4960   34.7670 C   0  0  0  0  0  0  0  0  0  0  0  0
   38.3310   24.5630   33.9080 C   0  0  0  0  0  0  0  0  0  0  0  0
   37.8460   24.1210   32.7040 N   0  0  0  0  0  0  0  0  0  0  0  0
   37.3510   22.9090   32.8790 C   0  0  0  0  0  0  0  0  0  0  0  0
   37.4690   22.4800   34.1560 N   0  0  0  0  0  0  0  0  0  0  0  0
   38.8000   25.5080   34.1180 H   0  0  0  0  0  0  0  0  0  0  0  0
   36.9070   22.3590   32.0460 H   0  0  0  0  0  0  0  0  0  0  0  0
   38.4010   23.4860   36.1800 C   0  0  0  0  0  0  0  0  0  0  0  0
   39.5690   22.8630   36.6320 C   0  0  0  0  0  0  0  0  0  0  0  0
   39.8430   22.8850   38.0170 C   0  0  0  0  0  0  0  0  0  0  0  0
   38.9620   23.5040   38.8250 N   0  0  0  0  0  0  0  0  0  0  0  0
   37.8400   24.1000   38.3680 C   0  0  0  0  0  0  0  0  0  0  0  0
   37.5510   24.0960   37.0520 N   0  0  0  0  0  0  0  0  0  0  0  0
   40.2440   22.3790   35.9470 H   0  0  0  0  0  0  0  0  0  0  0  0
   40.7180   22.4260   38.4090 H   0  0  0  0  0  0  0  0  0  0  0  0
   37.1190   24.6030   39.0010 H   0  0  0  0  0  0  0  0  0  0  0  0
   37.0170   21.2050   34.6200 C   0  0  1  0  0  0  0  0  0  0  0  0
   35.8530   21.0690   35.5010 C   0  0  0  0  0  0  0  0  0  0  0  0
   35.6780   20.7900   34.0130 C   0  0  2  0  0  0  0  0  0  0  0  0
   37.7910   20.4110   34.6690 H   0  0  0  0  0  0  0  0  0  0  0  0
   35.8500   20.2580   36.2290 H   0  0  0  0  0  0  0  0  0  0  0  0
   35.2760   21.9480   35.8380 H   0  0  0  0  0  0  0  0  0  0  0  0
   35.1260   21.4970   33.3970 H   0  0  0  0  0  0  0  0  0  0  0  0
   35.4710   19.3760   33.7560 N   0  0  0  0  0  0  0  0  0  0  0  0
   35.4090   18.9590   32.3980 C   0  0  0  0  0  0  0  0  0  0  0  0
   36.0930   19.5340   31.4760 N   0  0  0  0  0  0  0  0  0  0  0  0
   34.5690   17.8640   31.9850 N   0  0  0  0  0  0  0  0  0  0  0  0
   35.3650   18.6380   34.4860 H   0  0  0  0  0  0  0  0  0  0  0  0
   36.7400   20.3260   31.5850 H   0  0  0  0  0  0  0  0  0  0  0  0
   33.5980   17.4900   31.9560 H   0  0  0  0  0  0  0  0  0  0  0  0
   34.9870   17.0300   31.4970 H   0  0  0  0  0  0  0  0  0  0  0  0
  1  8  1  0  0  0  0
  2  6  1  0  0  0  0
  2  1  2  0  0  0  0
  3  4  2  0  0  0  0
  3  2  1  0  0  0  0
  4  5  1  0  0  0  0
  5 17  1  0  0  0  0
  5  1  1  0  0  0  0
  7  4  1  0  0  0  0
  8  9  2  0  0  0  0
  8 13  1  0  0  0  0
  9 10  1  0  0  0  0
 10 15  1  0  0  0  0
 10 11  2  0  0  0  0
 12 11  1  0  0  0  0
 12 16  1  0  0  0  0
 13 12  2  0  0  0  0
 14  9  1  0  0  0  0
 17 20  1  1  0  0  0
 17 18  1  0  0  0  0
 18 22  1  0  0  0  0
 18 21  1  0  0  0  0
 19 23  1  6  0  0  0
 19 17  1  0  0  0  0
 19 18  1  0  0  0  0
 24 19  1  0  0  0  0
 24 28  1  0  0  0  0
 25 24  1  0  0  0  0
 26 29  1  0  0  0  0
 26 25  2  0  0  0  0
 27 25  1  0  0  0  0
 30 27  1  0  0  0  0
 31 27  1  0  0  0  0
M  END
>  <minimizedAffinity>
-4.89506912

>  <minimizedRMSD>
0.255418539

$$$$
