REMARK  Name = 
REMARK  3 active torsions:
REMARK  status: ('A' for Active; 'I' for Inactive)
REMARK    1  A    between atoms: C_1  and  C_6
REMARK    2  A    between atoms: N_5  and  C_12
REMARK    3  A    between atoms: C_14  and  N_24
REMARK                            x       y       z     vdW  Elec       q    Type
REMARK                         _______ _______ _______ _____ _____    ______ ____
ROOT
ATOM      1  C   UNL     1      38.030  23.466  34.619  0.00  0.00    +0.000 A 
ATOM      2  C   UNL     1      38.266  24.573  33.804  0.00  0.00    +0.000 A 
ATOM      3  N   UNL     1      37.760  24.181  32.592  0.00  0.00    +0.000 NA
ATOM      4  C   UNL     1      37.282  22.956  32.722  0.00  0.00    +0.000 A 
ATOM      5  N   UNL     1      37.431  22.472  33.975  0.00  0.00    +0.000 N 
ATOM      6  H   UNL     1      38.729  25.513  34.047  0.00  0.00    +0.000 HD
ATOM      7  H   UNL     1      36.826  22.439  31.874  0.00  0.00    +0.000 HD
ENDROOT
BRANCH   1   8
ATOM      8  C   UNL     1      38.395  23.396  36.023  0.00  0.00    +0.000 A 
ATOM      9  C   UNL     1      39.596  22.799  36.420  0.00  0.00    +0.000 A 
ATOM     10  C   UNL     1      39.898  22.760  37.798  0.00  0.00    +0.000 A 
ATOM     11  N   UNL     1      39.010  23.300  38.654  0.00  0.00    +0.000 NA
ATOM     12  C   UNL     1      37.856  23.872  38.251  0.00  0.00    +0.000 A 
ATOM     13  N   UNL     1      37.540  23.925  36.942  0.00  0.00    +0.000 NA
ATOM     14  H   UNL     1      40.275  22.379  35.697  0.00  0.00    +0.000 HD
ATOM     15  H   UNL     1      40.798  22.317  38.149  0.00  0.00    +0.000 HD
ATOM     16  H   UNL     1      37.129  24.312  38.923  0.00  0.00    +0.000 HD
ENDBRANCH   1   8
BRANCH   5  17
ATOM     17  C   UNL     1      37.002  21.172  34.390  0.00  0.00    +0.000 C 
ATOM     18  C   UNL     1      35.835  20.981  35.257  0.00  0.00    +0.000 C 
ATOM     19  C   UNL     1      35.676  20.752  33.758  0.00  0.00    +0.000 C 
ATOM     20  H   UNL     1      37.792  20.393  34.418  0.00  0.00    +0.000 HD
ATOM     21  H   UNL     1      35.843  20.145  35.956  0.00  0.00    +0.000 HD
ATOM     22  H   UNL     1      35.237  21.836  35.620  0.00  0.00    +0.000 HD
ATOM     23  H   UNL     1      35.114  21.468  33.163  0.00  0.00    +0.000 HD
BRANCH  19  24
ATOM     24  N   UNL     1      35.501  19.344  33.450  0.00  0.00    +0.000 N 
ATOM     25  C   UNL     1      35.267  18.994  32.092  0.00  0.00    +0.000 C 
ATOM     26  N   UNL     1      35.787  19.652  31.119  0.00  0.00    +0.000 NA
ATOM     27  N   UNL     1      34.429  17.879  31.735  0.00  0.00    +0.000 N 
ATOM     28  H   UNL     1      35.533  18.564  34.143  0.00  0.00    +0.000 HD
ATOM     29  H   UNL     1      36.406  20.471  31.184  0.00  0.00    +0.000 HD
ATOM     30  H   UNL     1      33.482  17.455  31.819  0.00  0.00    +0.000 HD
ATOM     31  H   UNL     1      34.812  17.095  31.146  0.00  0.00    +0.000 HD
ENDBRANCH  19  24
ENDBRANCH   5  17
TORSDOF 3
