
 OpenBabel03262519313D

 42 45  0  0  0  0  0  0  0  0999 V2000
   42.2050   22.7670   36.3430 C   0  0  0  0  0  0  0  0  0  0  0  0
   42.4070   24.0720   35.9280 C   0  0  0  0  0  0  0  0  0  0  0  0
   43.3930   24.1200   34.9940 N   0  0  0  0  0  0  0  0  0  0  0  0
   43.8630   22.8550   34.7710 C   0  0  0  0  0  0  0  0  0  0  0  0
   44.8360   22.3890   33.9400 C   0  0  0  0  0  0  0  0  0  0  0  0
   45.1090   21.0240   33.9180 C   0  0  0  0  0  0  0  0  0  0  0  0
   44.3740   20.1840   34.7540 C   0  0  0  0  0  0  0  0  0  0  0  0
   43.3820   20.6710   35.6000 C   0  0  0  0  0  0  0  0  0  0  0  0
   43.1330   22.0200   35.6000 C   0  0  0  0  0  0  0  0  0  0  0  0
   41.8920   24.9740   36.2560 H   0  0  0  0  0  0  0  0  0  0  0  0
   43.7650   24.9640   34.5000 H   0  0  0  0  0  0  0  0  0  0  0  0
   45.3760   23.0680   33.3160 H   0  0  0  0  0  0  0  0  0  0  0  0
   45.8800   20.6970   33.2520 H   0  0  0  0  0  0  0  0  0  0  0  0
   44.6540   19.1680   34.6580 H   0  0  0  0  0  0  0  0  0  0  0  0
   42.6490   19.7840   36.4280 N   0  0  0  0  0  0  0  0  0  0  0  0
   43.1930   18.6380   37.0610 C   0  0  0  0  0  0  0  0  0  0  0  0
   44.3480   18.8230   37.6350 N   0  0  0  0  0  0  0  0  0  0  0  0
   42.4600   17.3940   37.0310 N   0  0  0  0  0  0  0  0  0  0  0  0
   41.6220   19.9700   36.5910 H   0  0  0  0  0  0  0  0  0  0  0  0
   44.8480   18.0660   38.1300 H   0  0  0  0  0  0  0  0  0  0  0  0
   42.6790   16.7640   36.2060 H   0  0  0  0  0  0  0  0  0  0  0  0
   41.9350   17.5900   37.9140 H   0  0  0  0  0  0  0  0  0  0  0  0
   41.2860   22.3690   37.2740 O   0  0  0  0  0  0  0  0  0  0  0  0
   39.9380   22.5920   37.2370 C   0  0  0  0  0  0  0  0  0  0  0  0
   39.3960   23.3630   38.2650 C   0  0  0  0  0  0  0  0  0  0  0  0
   38.0120   23.5960   38.2320 C   0  0  0  0  0  0  0  0  0  0  0  0
   37.2850   23.0740   37.2260 N   0  0  0  0  0  0  0  0  0  0  0  0
   37.8630   22.3310   36.2530 C   0  0  0  0  0  0  0  0  0  0  0  0
   39.1590   22.0970   36.2590 N   0  0  0  0  0  0  0  0  0  0  0  0
   37.1580   21.7470   35.1590 N   0  0  0  0  0  0  0  0  0  0  0  0
   37.5680   21.9660   33.8710 C   0  0  0  0  0  0  0  0  0  0  0  0
   36.8430   21.3690   32.8490 C   0  0  0  0  0  0  0  0  0  0  0  0
   35.7300   20.5730   33.1130 C   0  0  0  0  0  0  0  0  0  0  0  0
   35.0640   20.0280   32.1970 O   0  0  0  0  0  0  0  0  0  0  0  0
   35.3640   20.3860   34.3880 N   0  0  0  0  0  0  0  0  0  0  0  0
   36.0720   20.9680   35.3850 C   0  0  0  0  0  0  0  0  0  0  0  0
   35.7440   20.8040   36.5830 O   0  0  0  0  0  0  0  0  0  0  0  0
   40.0080   23.7650   39.0530 H   0  0  0  0  0  0  0  0  0  0  0  0
   37.5440   24.1890   39.0090 H   0  0  0  0  0  0  0  0  0  0  0  0
   38.4320   22.5830   33.6650 H   0  0  0  0  0  0  0  0  0  0  0  0
   37.1330   21.5160   31.8080 H   0  0  0  0  0  0  0  0  0  0  0  0
   34.5350   19.7970   34.6470 H   0  0  0  0  0  0  0  0  0  0  0  0
  1 23  1  0  0  0  0
  2 10  1  0  0  0  0
  2  1  2  0  0  0  0
  3  2  1  0  0  0  0
  4  3  1  0  0  0  0
  4  9  1  0  0  0  0
  5  4  2  0  0  0  0
  6  5  1  0  0  0  0
  6  7  2  0  0  0  0
  7  8  1  0  0  0  0
  8 15  1  0  0  0  0
  9  8  2  0  0  0  0
  9  1  1  0  0  0  0
 11  3  1  0  0  0  0
 12  5  1  0  0  0  0
 13  6  1  0  0  0  0
 14  7  1  0  0  0  0
 15 19  1  0  0  0  0
 15 16  1  0  0  0  0
 16 17  2  0  0  0  0
 17 20  1  0  0  0  0
 18 16  1  0  0  0  0
 18 22  1  0  0  0  0
 21 18  1  0  0  0  0
 24 23  1  0  0  0  0
 24 25  1  0  0  0  0
 25 38  1  0  0  0  0
 26 25  2  0  0  0  0
 26 39  1  0  0  0  0
 27 26  1  0  0  0  0
 28 29  1  0  0  0  0
 28 27  2  0  0  0  0
 29 24  2  0  0  0  0
 30 36  1  0  0  0  0
 30 28  1  0  0  0  0
 31 30  1  0  0  0  0
 32 33  1  0  0  0  0
 32 31  2  0  0  0  0
 33 35  1  0  0  0  0
 34 33  2  0  0  0  0
 35 42  1  0  0  0  0
 35 36  1  0  0  0  0
 36 37  2  0  0  0  0
 40 31  1  0  0  0  0
 41 32  1  0  0  0  0
M  END
>  <minimizedAffinity>
-6.08705139

>  <minimizedRMSD>
1.44785571

$$$$
