
 OpenBabel03262519553D

 31 33  0  0  1  0  0  0  0  0999 V2000
   38.0710   23.4860   34.7650 C   0  0  0  0  0  0  0  0  0  0  0  0
   38.3380   24.5510   33.9050 C   0  0  0  0  0  0  0  0  0  0  0  0
   37.8470   24.1120   32.7030 N   0  0  0  0  0  0  0  0  0  0  0  0
   37.3480   22.9010   32.8800 C   0  0  0  0  0  0  0  0  0  0  0  0
   37.4690   22.4720   34.1560 N   0  0  0  0  0  0  0  0  0  0  0  0
   38.8100   25.4950   34.1140 H   0  0  0  0  0  0  0  0  0  0  0  0
   36.8990   22.3530   32.0480 H   0  0  0  0  0  0  0  0  0  0  0  0
   38.4110   23.4740   36.1770 C   0  0  0  0  0  0  0  0  0  0  0  0
   39.5870   22.8630   36.6240 C   0  0  0  0  0  0  0  0  0  0  0  0
   39.8650   22.8820   38.0070 C   0  0  0  0  0  0  0  0  0  0  0  0
   38.9800   23.4890   38.8200 N   0  0  0  0  0  0  0  0  0  0  0  0
   37.8500   24.0740   38.3690 C   0  0  0  0  0  0  0  0  0  0  0  0
   37.5570   24.0720   37.0540 N   0  0  0  0  0  0  0  0  0  0  0  0
   40.2650   22.3880   35.9340 H   0  0  0  0  0  0  0  0  0  0  0  0
   40.7460   22.4310   38.3950 H   0  0  0  0  0  0  0  0  0  0  0  0
   37.1260   24.5670   39.0060 H   0  0  0  0  0  0  0  0  0  0  0  0
   37.0130   21.1990   34.6210 C   0  0  1  0  0  0  0  0  0  0  0  0
   35.8470   21.0660   35.5000 C   0  0  0  0  0  0  0  0  0  0  0  0
   35.6750   20.7850   34.0110 C   0  0  2  0  0  0  0  0  0  0  0  0
   37.7860   20.4040   34.6740 H   0  0  0  0  0  0  0  0  0  0  0  0
   35.8410   20.2560   36.2300 H   0  0  0  0  0  0  0  0  0  0  0  0
   35.2710   21.9470   35.8340 H   0  0  0  0  0  0  0  0  0  0  0  0
   35.1250   21.4910   33.3930 H   0  0  0  0  0  0  0  0  0  0  0  0
   35.4660   19.3710   33.7570 N   0  0  0  0  0  0  0  0  0  0  0  0
   35.4110   18.9510   32.4000 C   0  0  0  0  0  0  0  0  0  0  0  0
   36.1020   19.5220   31.4800 N   0  0  0  0  0  0  0  0  0  0  0  0
   34.5720   17.8570   31.9840 N   0  0  0  0  0  0  0  0  0  0  0  0
   35.3550   18.6340   34.4880 H   0  0  0  0  0  0  0  0  0  0  0  0
   36.7500   20.3130   31.5910 H   0  0  0  0  0  0  0  0  0  0  0  0
   33.6000   17.4850   31.9510 H   0  0  0  0  0  0  0  0  0  0  0  0
   34.9900   17.0210   31.5000 H   0  0  0  0  0  0  0  0  0  0  0  0
  1  8  1  0  0  0  0
  2  6  1  0  0  0  0
  2  1  2  0  0  0  0
  3  4  2  0  0  0  0
  3  2  1  0  0  0  0
  4  5  1  0  0  0  0
  5 17  1  0  0  0  0
  5  1  1  0  0  0  0
  7  4  1  0  0  0  0
  8  9  2  0  0  0  0
  8 13  1  0  0  0  0
  9 10  1  0  0  0  0
 10 15  1  0  0  0  0
 10 11  2  0  0  0  0
 12 11  1  0  0  0  0
 12 16  1  0  0  0  0
 13 12  2  0  0  0  0
 14  9  1  0  0  0  0
 17 20  1  1  0  0  0
 17 18  1  0  0  0  0
 18 22  1  0  0  0  0
 18 21  1  0  0  0  0
 19 23  1  6  0  0  0
 19 17  1  0  0  0  0
 19 18  1  0  0  0  0
 24 19  1  0  0  0  0
 24 28  1  0  0  0  0
 25 24  1  0  0  0  0
 26 29  1  0  0  0  0
 26 25  2  0  0  0  0
 27 25  1  0  0  0  0
 30 27  1  0  0  0  0
 31 27  1  0  0  0  0
M  END
>  <minimizedAffinity>
-4.88412094

>  <minimizedRMSD>
0.36127612

$$$$
