
 OpenBabel03262519593D

 30 32  0  0  1  0  0  0  0  0999 V2000
   38.8470   23.3730   34.4740 C   0  0  0  0  0  0  0  0  0  0  0  0
   38.1830   22.8310   35.5740 C   0  0  0  0  0  0  0  0  0  0  0  0
   37.3320   21.9200   35.0210 N   0  0  0  0  0  0  0  0  0  0  0  0
   37.5060   21.9480   33.7020 C   0  0  0  0  0  0  0  0  0  0  0  0
   38.4310   22.8320   33.3410 N   0  0  0  0  0  0  0  0  0  0  0  0
   38.3680   23.1310   36.6120 H   0  0  0  0  0  0  0  0  0  0  0  0
   36.9180   21.2890   33.0530 H   0  0  0  0  0  0  0  0  0  0  0  0
   39.8620   24.4100   34.5540 C   0  0  0  0  0  0  0  0  0  0  0  0
   39.4740   25.7680   34.5300 C   0  0  0  0  0  0  0  0  0  0  0  0
   40.4930   26.7420   34.6160 C   0  0  0  0  0  0  0  0  0  0  0  0
   41.7770   26.3050   34.7150 N   0  0  0  0  0  0  0  0  0  0  0  0
   42.1040   24.9930   34.7330 C   0  0  0  0  0  0  0  0  0  0  0  0
   41.1550   24.0480   34.6540 N   0  0  0  0  0  0  0  0  0  0  0  0
   38.4280   26.0150   34.4490 H   0  0  0  0  0  0  0  0  0  0  0  0
   40.2180   27.7840   34.5990 H   0  0  0  0  0  0  0  0  0  0  0  0
   43.1650   24.8160   34.8160 H   0  0  0  0  0  0  0  0  0  0  0  0
   38.8060   23.0510   31.9940 C   0  0  1  0  0  0  0  0  0  0  0  0
   37.9900   22.8510   30.8280 C   0  0  0  0  0  0  0  0  0  0  0  0
   38.2450   24.2860   31.3740 C   0  0  2  0  0  0  0  0  0  0  0  0
   39.9270   22.8700   31.8440 H   0  0  0  0  0  0  0  0  0  0  0  0
   36.9500   22.5010   30.9140 H   0  0  0  0  0  0  0  0  0  0  0  0
   38.4310   22.6270   29.8440 H   0  0  0  0  0  0  0  0  0  0  0  0
   39.1450   25.0710   30.4440 C   0  0  0  0  0  0  0  0  0  0  0  0
   38.8900   26.4220   30.5650 F   0  0  0  0  0  0  0  0  0  0  0  0
   40.5130   24.9320   30.9260 F   0  0  0  0  0  0  0  0  0  0  0  0
   39.1470   24.6250   29.1790 F   0  0  0  0  0  0  0  0  0  0  0  0
   36.9010   24.8930   31.6010 C   0  0  0  0  0  0  0  0  0  0  0  0
   36.5210   25.3740   32.7010 O   0  0  0  0  0  0  0  0  0  0  0  0
   35.9830   24.9510   30.5660 O   0  0  0  0  0  0  0  0  0  0  0  0
   35.2940   25.7160   30.5020 H   0  0  0  0  0  0  0  0  0  0  0  0
  1  8  1  0  0  0  0
  1  2  2  0  0  0  0
  2  6  1  0  0  0  0
  3  2  1  0  0  0  0
  4  3  2  0  0  0  0
  5  4  1  0  0  0  0
  5  1  1  0  0  0  0
  7  4  1  0  0  0  0
  8 13  1  0  0  0  0
  9  8  2  0  0  0  0
  9 10  1  0  0  0  0
 10 11  2  0  0  0  0
 11 12  1  0  0  0  0
 12 16  1  0  0  0  0
 13 12  2  0  0  0  0
 14  9  1  0  0  0  0
 15 10  1  0  0  0  0
 17 20  1  6  0  0  0
 17  5  1  0  0  0  0
 18 21  1  0  0  0  0
 18 19  1  0  0  0  0
 18 17  1  0  0  0  0
 19 27  1  1  0  0  0
 19 17  1  0  0  0  0
 22 18  1  0  0  0  0
 23 24  1  0  0  0  0
 23 25  1  0  0  0  0
 23 19  1  0  0  0  0
 26 23  1  0  0  0  0
 27 28  2  0  0  0  0
 29 27  1  0  0  0  0
 30 29  1  0  0  0  0
M  END
>  <minimizedAffinity>
-3.67612576

>  <minimizedRMSD>
5.36472988

$$$$
