
 OpenBabel03262516223D

 39 42  0  0  0  0  0  0  0  0999 V2000
   44.9230   24.8680   37.1710 N   0  0  0  0  0  0  0  0  0  0  0  0
   44.6200   25.6450   38.2020 N   0  0  0  0  0  0  0  0  0  0  0  0
   45.6080   25.7940   39.0480 C   0  0  0  0  0  0  0  0  0  0  0  0
   46.6820   25.0710   38.5810 C   0  0  0  0  0  0  0  0  0  0  0  0
   46.2160   24.4970   37.3920 C   0  0  0  0  0  0  0  0  0  0  0  0
   45.6300   26.3690   39.9640 H   0  0  0  0  0  0  0  0  0  0  0  0
   47.6670   24.9320   38.9740 H   0  0  0  0  0  0  0  0  0  0  0  0
   47.0430   23.6080   36.5130 C   0  0  0  0  0  0  0  0  0  0  0  0
   47.8000   24.1650   35.4560 C   0  0  0  0  0  0  0  0  0  0  0  0
   48.5880   22.7000   34.7350 S   0  0  0  0  0  0  0  0  0  0  0  0
   47.7570   21.5430   35.9930 C   0  0  0  0  0  0  0  0  0  0  0  0
   47.1800   22.3010   36.5810 N   0  0  0  0  0  0  0  0  0  0  0  0
   47.9650   20.0800   36.0010 C   0  0  0  0  0  0  0  0  0  0  0  0
   47.7370   19.5250   34.7670 F   0  0  0  0  0  0  0  0  0  0  0  0
   47.0470   19.5940   36.9230 F   0  0  0  0  0  0  0  0  0  0  0  0
   49.2350   19.7540   36.4870 F   0  0  0  0  0  0  0  0  0  0  0  0
   47.9820   25.5090   34.9810 C   0  0  0  0  0  0  0  0  0  0  0  0
   47.4290   25.9870   33.9650 O   0  0  0  0  0  0  0  0  0  0  0  0
   48.8330   26.2550   35.7460 O   0  0  0  0  0  0  0  0  0  0  0  0
   49.0650   27.2370   35.5400 H   0  0  0  0  0  0  0  0  0  0  0  0
   44.1200   24.4570   36.0300 C   0  0  0  0  0  0  0  0  0  0  0  0
   44.7780   24.2200   35.1830 H   0  0  0  0  0  0  0  0  0  0  0  0
   43.4700   25.2950   35.7450 H   0  0  0  0  0  0  0  0  0  0  0  0
   41.0200   22.5280   37.0310 C   0  0  0  0  0  0  0  0  0  0  0  0
   41.8730   23.5520   36.6950 C   0  0  0  0  0  0  0  0  0  0  0  0
   43.2170   23.3130   36.3940 C   0  0  0  0  0  0  0  0  0  0  0  0
   43.6170   22.0070   36.4590 N   0  0  0  0  0  0  0  0  0  0  0  0
   42.7720   21.0090   36.7900 C   0  0  0  0  0  0  0  0  0  0  0  0
   41.4900   21.3020   37.0680 N   0  0  0  0  0  0  0  0  0  0  0  0
   41.5470   24.5730   36.6480 H   0  0  0  0  0  0  0  0  0  0  0  0
   43.1230   20.0040   36.8290 H   0  0  0  0  0  0  0  0  0  0  0  0
   39.6220   22.8530   37.3350 C   0  0  0  0  0  0  0  0  0  0  0  0
   38.5980   22.8080   36.4020 C   0  0  0  0  0  0  0  0  0  0  0  0
   37.4930   23.1830   37.1240 C   0  0  0  0  0  0  0  0  0  0  0  0
   37.8640   23.4370   38.4230 C   0  0  0  0  0  0  0  0  0  0  0  0
   39.1660   23.2200   38.4910 O   0  0  0  0  0  0  0  0  0  0  0  0
   38.6170   22.5490   35.3590 H   0  0  0  0  0  0  0  0  0  0  0  0
   36.4560   23.2870   36.7880 H   0  0  0  0  0  0  0  0  0  0  0  0
   37.3060   23.7540   39.3080 H   0  0  0  0  0  0  0  0  0  0  0  0
  1  5  1  0  0  0  0
  1  2  1  0  0  0  0
  2  3  2  0  0  0  0
  3  6  1  0  0  0  0
  4  7  1  0  0  0  0
  4  3  1  0  0  0  0
  5  4  2  0  0  0  0
  8 12  1  0  0  0  0
  8  5  1  0  0  0  0
  9  8  2  0  0  0  0
 10  9  1  0  0  0  0
 10 11  1  0  0  0  0
 11 13  1  0  0  0  0
 11 12  2  0  0  0  0
 13 16  1  0  0  0  0
 13 15  1  0  0  0  0
 14 13  1  0  0  0  0
 17  9  1  0  0  0  0
 17 19  1  0  0  0  0
 18 17  2  0  0  0  0
 20 19  1  0  0  0  0
 21 26  1  0  0  0  0
 21  1  1  0  0  0  0
 22 21  1  0  0  0  0
 23 21  1  0  0  0  0
 24 29  1  0  0  0  0
 24 32  1  0  0  0  0
 25 24  2  0  0  0  0
 26 27  2  0  0  0  0
 26 25  1  0  0  0  0
 27 28  1  0  0  0  0
 28 31  1  0  0  0  0
 28 29  2  0  0  0  0
 30 25  1  0  0  0  0
 32 36  1  0  0  0  0
 33 34  1  0  0  0  0
 33 32  2  0  0  0  0
 34 35  2  0  0  0  0
 35 36  1  0  0  0  0
 35 39  1  0  0  0  0
 37 33  1  0  0  0  0
 38 34  1  0  0  0  0
M  END
>  <minimizedAffinity>
-4.92632294

>  <minimizedRMSD>
0.417746753

$$$$
