
     RDKit          3D

 27 29  0  0  0  0  0  0  0  0999 V2000
   38.0302   23.4738   34.6193 C   0  0  0  0  0  0  0  0  0  0  0  0
   38.2687   24.5683   33.7964 C   0  0  0  0  0  0  0  0  0  0  0  0
   37.7628   24.1771   32.5837 N   0  0  0  0  0  0  0  0  0  0  0  0
   37.2806   22.9611   32.7194 C   0  0  0  0  0  0  0  0  0  0  0  0
   37.4240   22.4816   33.9676 N   0  0  0  0  0  0  0  0  0  0  0  0
   38.3938   23.4005   36.0339 C   0  0  0  0  0  0  0  0  0  0  0  0
   39.5934   22.7993   36.4235 C   0  0  0  0  0  0  0  0  0  0  0  0
   39.8972   22.7545   37.8022 C   0  0  0  0  0  0  0  0  0  0  0  0
   39.0155   23.2920   38.6555 N   0  0  0  0  0  0  0  0  0  0  0  0
   37.8539   23.8715   38.2464 C   0  0  0  0  0  0  0  0  0  0  0  0
   37.5404   23.9271   36.9356 N   0  0  0  0  0  0  0  0  0  0  0  0
   36.9892   21.1843   34.3979 C   0  0  1  0  0  0  0  0  0  0  0  0
   35.8411   20.9661   35.2613 C   0  0  0  0  0  0  0  0  0  0  0  0
   35.6842   20.7478   33.7611 C   0  0  2  0  0  0  0  0  0  0  0  0
   38.7448   25.5072   34.0637 H   0  0  0  0  0  0  0  0  0  0  0  0
   36.8184   22.4294   31.8781 H   0  0  0  0  0  0  0  0  0  0  0  0
   40.2571   22.3873   35.6930 H   0  0  0  0  0  0  0  0  0  0  0  0
   40.8141   22.2971   38.1248 H   0  0  0  0  0  0  0  0  0  0  0  0
   37.1523   24.3017   38.9560 H   0  0  0  0  0  0  0  0  0  0  0  0
   37.8200   20.4552   34.4573 H   0  0  0  0  0  0  0  0  0  0  0  0
   35.2711   21.8548   35.6356 H   0  0  0  0  0  0  0  0  0  0  0  0
   35.7774   20.1079   35.9358 H   0  0  0  0  0  0  0  0  0  0  0  0
   35.0659   21.4399   33.1902 H   0  0  0  0  0  0  0  0  0  0  0  0
   35.6644   19.3043   33.3528 C   0  0  0  0  0  0  0  0  0  0  0  0
   35.5657   18.4020   34.2327 O   0  0  0  0  0  0  0  0  0  0  0  0
   35.7566   18.9926   31.9969 O   0  0  0  0  0  0  0  0  0  0  0  0
   35.8355   18.0101   31.6937 H   0  0  0  0  0  0  0  0  0  0  0  0
  1  6  1  0
  2  1  2  0
  3  4  2  0
  3  2  1  0
  4  5  1  0
  5 12  1  0
  5  1  1  0
  6  7  2  0
  6 11  1  0
  7  8  1  0
  8  9  2  0
 10  9  1  0
 11 10  2  0
 12 13  1  0
 14 12  1  0
 14 13  1  0
  2 15  1  0
  4 16  1  0
  7 17  1  0
  8 18  1  0
 10 19  1  0
 12 20  1  1
 13 21  1  0
 13 22  1  0
 14 23  1  6
 24 25  2  0
 24 26  1  0
 26 27  1  0
 14 24  1  0
M  ISO  8  15  14  16  14  17  14  18  14  19  14  20  13  21  13  22  13
M  ISO  1  23  13
M  END
>  <DihAtoms>  (1) 
11,13,23,24

>  <DihDeg>  (1) 
-151.11521432245

$$$$
