
 OpenBabel03262519593D

 30 32  0  0  1  0  0  0  0  0999 V2000
   37.4820   23.4310   32.7490 C   0  0  0  0  0  0  0  0  0  0  0  0
   37.4610   22.1470   32.2040 C   0  0  0  0  0  0  0  0  0  0  0  0
   37.8410   21.3500   33.2440 N   0  0  0  0  0  0  0  0  0  0  0  0
   38.0590   22.1310   34.2990 C   0  0  0  0  0  0  0  0  0  0  0  0
   37.8460   23.4130   34.0210 N   0  0  0  0  0  0  0  0  0  0  0  0
   37.1890   21.9240   31.1670 H   0  0  0  0  0  0  0  0  0  0  0  0
   38.3770   21.6950   35.2540 H   0  0  0  0  0  0  0  0  0  0  0  0
   37.1560   24.6420   32.0150 C   0  0  0  0  0  0  0  0  0  0  0  0
   38.1970   25.4530   31.5120 C   0  0  0  0  0  0  0  0  0  0  0  0
   37.8350   26.6170   30.7990 C   0  0  0  0  0  0  0  0  0  0  0  0
   36.5090   26.8760   30.6460 N   0  0  0  0  0  0  0  0  0  0  0  0
   35.5440   26.0710   31.1460 C   0  0  0  0  0  0  0  0  0  0  0  0
   35.8620   24.9600   31.8260 N   0  0  0  0  0  0  0  0  0  0  0  0
   39.2210   25.1620   31.6850 H   0  0  0  0  0  0  0  0  0  0  0  0
   38.6150   27.2490   30.4070 H   0  0  0  0  0  0  0  0  0  0  0  0
   34.5440   26.4200   30.9380 H   0  0  0  0  0  0  0  0  0  0  0  0
   38.0040   24.4470   34.9750 C   0  0  1  0  0  0  0  0  0  0  0  0
   38.7790   24.3950   36.1830 C   0  0  0  0  0  0  0  0  0  0  0  0
   39.3190   25.1490   34.9340 C   0  0  2  0  0  0  0  0  0  0  0  0
   37.0730   25.1120   35.0180 H   0  0  0  0  0  0  0  0  0  0  0  0
   39.3440   23.4910   36.4590 H   0  0  0  0  0  0  0  0  0  0  0  0
   38.5360   25.0230   37.0550 H   0  0  0  0  0  0  0  0  0  0  0  0
   39.3190   26.6460   35.1590 C   0  0  0  0  0  0  0  0  0  0  0  0
   38.4220   27.2550   34.3040 F   0  0  0  0  0  0  0  0  0  0  0  0
   38.7600   26.8970   36.4820 F   0  0  0  0  0  0  0  0  0  0  0  0
   40.5400   27.2000   35.1580 F   0  0  0  0  0  0  0  0  0  0  0  0
   40.6590   24.5640   34.6370 C   0  0  0  0  0  0  0  0  0  0  0  0
   41.5410   24.3400   35.5090 O   0  0  0  0  0  0  0  0  0  0  0  0
   40.9950   24.2290   33.3370 O   0  0  0  0  0  0  0  0  0  0  0  0
   41.6340   23.4460   33.1320 H   0  0  0  0  0  0  0  0  0  0  0  0
  1  5  1  0  0  0  0
  2  1  2  0  0  0  0
  2  3  1  0  0  0  0
  3  4  2  0  0  0  0
  4  7  1  0  0  0  0
  5  4  1  0  0  0  0
  5 17  1  0  0  0  0
  6  2  1  0  0  0  0
  8  1  1  0  0  0  0
  9 14  1  0  0  0  0
  9  8  2  0  0  0  0
 10  9  1  0  0  0  0
 11 10  2  0  0  0  0
 11 12  1  0  0  0  0
 12 13  2  0  0  0  0
 13  8  1  0  0  0  0
 15 10  1  0  0  0  0
 16 12  1  0  0  0  0
 17 20  1  1  0  0  0
 17 18  1  0  0  0  0
 18 21  1  0  0  0  0
 18 22  1  0  0  0  0
 19 27  1  6  0  0  0
 19 17  1  0  0  0  0
 19 23  1  0  0  0  0
 19 18  1  0  0  0  0
 23 25  1  0  0  0  0
 24 23  1  0  0  0  0
 26 23  1  0  0  0  0
 27 28  2  0  0  0  0
 29 27  1  0  0  0  0
 30 29  1  0  0  0  0
M  END
>  <minimizedAffinity>
-4.32331276

>  <minimizedRMSD>
3.50750995

$$$$
