
 OpenBabel03262519513D

 20 20  0  0  0  0  0  0  0  0999 V2000
   40.3600   22.4600   37.6020 C   0  0  0  0  0  0  0  0  0  0  0  0
   39.3520   23.3420   37.1310 C   0  0  0  0  0  0  0  0  0  0  0  0
   39.7680   23.8850   35.9570 C   0  0  0  0  0  0  0  0  0  0  0  0
   40.9790   23.6040   35.3510 N   0  0  0  0  0  0  0  0  0  0  0  0
   41.8560   22.7630   35.8730 C   0  0  0  0  0  0  0  0  0  0  0  0
   41.5390   22.1860   37.0140 N   0  0  0  0  0  0  0  0  0  0  0  0
   40.2660   21.8840   38.5520 H   0  0  0  0  0  0  0  0  0  0  0  0
   42.7450   22.6550   35.2810 H   0  0  0  0  0  0  0  0  0  0  0  0
   38.1950   23.4580   37.9410 C   0  0  0  0  0  0  0  0  0  0  0  0
   38.1190   24.7470   38.5650 F   0  0  0  0  0  0  0  0  0  0  0  0
   38.0830   22.8410   39.1150 F   0  0  0  0  0  0  0  0  0  0  0  0
   36.9660   23.7100   37.2720 F   0  0  0  0  0  0  0  0  0  0  0  0
   38.8220   24.7780   35.3860 C   0  0  0  0  0  0  0  0  0  0  0  0
   38.0030   24.8960   36.1680 H   0  0  0  0  0  0  0  0  0  0  0  0
   39.1390   25.8320   35.2460 H   0  0  0  0  0  0  0  0  0  0  0  0
   38.1760   24.3010   34.1900 C   0  0  0  0  0  0  0  0  0  0  0  0
   37.3730   23.5600   34.4380 H   0  0  0  0  0  0  0  0  0  0  0  0
   38.8890   23.7350   33.5270 H   0  0  0  0  0  0  0  0  0  0  0  0
   37.4550   25.5910   33.1390 S   0  0  0  0  0  0  0  0  0  0  0  0
   36.0870   25.3440   32.9290 H   0  0  0  0  0  0  0  0  0  0  0  0
  1  7  1  0  0  0  0
  2  1  1  0  0  0  0
  2  9  1  0  0  0  0
  3  2  2  0  0  0  0
  4  5  2  0  0  0  0
  4  3  1  0  0  0  0
  5  6  1  0  0  0  0
  6  1  2  0  0  0  0
  8  5  1  0  0  0  0
  9 10  1  0  0  0  0
  9 11  1  0  0  0  0
 12  9  1  0  0  0  0
 13  3  1  0  0  0  0
 13 14  1  0  0  0  0
 15 13  1  0  0  0  0
 16 17  1  0  0  0  0
 16 13  1  0  0  0  0
 18 16  1  0  0  0  0
 19 16  1  0  0  0  0
 20 19  1  0  0  0  0
M  END
>  <minimizedAffinity>
-3.66817713

>  <minimizedRMSD>
3.96331334

$$$$
