
     RDKit          3D

 30 32  0  0  0  0  0  0  0  0999 V2000
   37.8687   23.6990   33.5013 C   0  0  0  0  0  0  0  0  0  0  0  0
   37.4649   22.6562   32.6683 C   0  0  0  0  0  0  0  0  0  0  0  0
   37.4856   21.5635   33.4851 N   0  0  0  0  0  0  0  0  0  0  0  0
   37.8741   21.9659   34.6931 C   0  0  0  0  0  0  0  0  0  0  0  0
   38.1147   23.2724   34.7291 N   0  0  0  0  0  0  0  0  0  0  0  0
   38.0133   25.0825   33.0778 C   0  0  0  0  0  0  0  0  0  0  0  0
   39.2956   25.5852   32.7688 C   0  0  0  0  0  0  0  0  0  0  0  0
   39.3886   26.9326   32.3564 C   0  0  0  0  0  0  0  0  0  0  0  0
   38.2374   27.6524   32.2855 N   0  0  0  0  0  0  0  0  0  0  0  0
   37.0277   27.1286   32.5919 C   0  0  0  0  0  0  0  0  0  0  0  0
   36.9126   25.8520   32.9860 N   0  0  0  0  0  0  0  0  0  0  0  0
   38.5373   23.9476   35.8994 C   0  0  1  0  0  0  0  0  0  0  0  0
   38.0856   25.2303   36.3638 C   0  0  0  0  0  0  0  0  0  0  0  0
   37.5637   23.9244   37.0287 C   0  0  2  0  0  0  0  0  0  0  0  0
   38.1211   23.7642   38.4274 C   0  0  0  0  0  0  0  0  0  0  0  0
   37.5075   22.7040   39.0642 F   0  0  0  0  0  0  0  0  0  0  0  0
   39.5102   23.3390   38.3074 F   0  0  0  0  0  0  0  0  0  0  0  0
   38.1384   24.8982   39.1428 F   0  0  0  0  0  0  0  0  0  0  0  0
   37.2086   22.7791   31.6097 H   0  0  0  0  0  0  0  0  0  0  0  0
   37.9622   21.2440   35.5145 H   0  0  0  0  0  0  0  0  0  0  0  0
   40.1509   24.9349   32.8559 H   0  0  0  0  0  0  0  0  0  0  0  0
   40.3591   27.3359   32.1157 H   0  0  0  0  0  0  0  0  0  0  0  0
   36.2171   27.8316   32.4836 H   0  0  0  0  0  0  0  0  0  0  0  0
   39.6224   23.6874   36.1561 H   0  0  0  0  0  0  0  0  0  0  0  0
   37.3277   25.8035   35.8088 H   0  0  0  0  0  0  0  0  0  0  0  0
   38.7189   25.8717   36.9983 H   0  0  0  0  0  0  0  0  0  0  0  0
   36.0746   23.9822   36.9536 C   0  0  0  0  0  0  0  0  0  0  0  0
   35.4348   24.8182   36.2620 O   0  0  0  0  0  0  0  0  0  0  0  0
   35.3099   23.0795   37.6726 O   0  0  0  0  0  0  0  0  0  0  0  0
   34.3907   22.7618   37.3287 H   0  0  0  0  0  0  0  0  0  0  0  0
  1  5  1  0
  2  3  1  0
  2  1  2  0
  3  4  2  0
  4  5  1  0
  5 12  1  0
  6  1  1  0
  7  6  2  0
  8  7  1  0
  9  8  2  0
  9 10  1  0
 10 11  2  0
 11  6  1  0
 12 13  1  0
 12 14  1  0
 13 14  1  0
 14 15  1  1
 15 16  1  0
 15 18  1  0
 17 15  1  0
  2 19  1  0
  4 20  1  0
  7 21  1  0
  8 22  1  0
 10 23  1  0
 12 24  1  1
 13 25  1  0
 13 26  1  0
 27 28  2  0
 27 29  1  0
 29 30  1  0
 14 27  1  0
M  ISO  8  19  14  20  14  21  14  22  14  23  14  24  13  25  13  26  13
M  END
>  <DihAtoms>  (1) 
11,13,26,27

>  <DihDeg>  (1) 
-3.013210022764542

$$$$
