
 OpenBabel03262519393D

 36 38  0  0  1  0  0  0  0  0999 V2000
   37.6390   25.4550   34.5650 N   0  0  0  0  0  0  0  0  0  0  0  0
   37.1890   25.7270   33.2160 C   0  0  0  0  0  0  0  0  0  0  0  0
   37.2810   27.2050   33.0530 C   0  0  0  0  0  0  0  0  0  0  0  0
   37.8400   27.6910   34.3790 C   0  0  0  0  0  0  0  0  0  0  0  0
   38.6560   26.4330   34.7890 C   0  0  2  0  0  0  0  0  0  0  0  0
   36.1360   25.3690   33.1590 H   0  0  0  0  0  0  0  0  0  0  0  0
   37.7780   25.2160   32.4540 H   0  0  0  0  0  0  0  0  0  0  0  0
   37.9170   27.5370   32.2010 H   0  0  0  0  0  0  0  0  0  0  0  0
   36.2510   27.6390   32.9900 H   0  0  0  0  0  0  0  0  0  0  0  0
   37.0950   27.9050   35.1380 H   0  0  0  0  0  0  0  0  0  0  0  0
   38.6040   28.4840   34.2570 H   0  0  0  0  0  0  0  0  0  0  0  0
   38.9800   26.5970   35.8260 H   0  0  0  0  0  0  0  0  0  0  0  0
   38.2530   24.1620   34.6660 C   0  0  0  0  0  0  0  0  0  0  0  0
   39.1680   24.1170   34.0380 H   0  0  0  0  0  0  0  0  0  0  0  0
   37.5260   23.4110   34.2850 H   0  0  0  0  0  0  0  0  0  0  0  0
   37.9350   23.6810   38.4120 C   0  0  0  0  0  0  0  0  0  0  0  0
   37.6000   24.0450   37.1080 C   0  0  0  0  0  0  0  0  0  0  0  0
   38.5450   23.7990   36.0890 C   0  0  0  0  0  0  0  0  0  0  0  0
   39.7290   23.2190   36.4470 N   0  0  0  0  0  0  0  0  0  0  0  0
   39.9900   22.8920   37.7250 C   0  0  0  0  0  0  0  0  0  0  0  0
   39.0880   23.1250   38.6960 N   0  0  0  0  0  0  0  0  0  0  0  0
   37.2480   23.8460   39.2270 H   0  0  0  0  0  0  0  0  0  0  0  0
   36.6600   24.4970   36.8760 H   0  0  0  0  0  0  0  0  0  0  0  0
   40.9610   22.4450   37.8410 H   0  0  0  0  0  0  0  0  0  0  0  0
   39.7490   26.2500   33.9880 O   0  0  0  0  0  0  0  0  0  0  0  0
   40.9510   26.4890   34.6070 C   0  0  2  0  0  0  0  0  0  0  0  0
   41.9820   27.2040   33.7900 C   0  0  0  0  0  0  0  0  0  0  0  0
   42.1880   25.7670   34.1750 C   0  0  1  0  0  0  0  0  0  0  0  0
   40.8690   26.6010   35.6900 H   0  0  0  0  0  0  0  0  0  0  0  0
   41.7910   27.3410   32.6850 H   0  0  0  0  0  0  0  0  0  0  0  0
   42.6900   27.9080   34.2680 H   0  0  0  0  0  0  0  0  0  0  0  0
   42.0940   24.9700   33.4190 H   0  0  0  0  0  0  0  0  0  0  0  0
   43.1330   25.4380   35.2670 C   0  0  0  0  0  0  0  0  0  0  0  0
   43.0160   24.4300   36.0130 O   0  0  0  0  0  0  0  0  0  0  0  0
   44.2000   26.3450   35.4260 O   0  0  0  0  0  0  0  0  0  0  0  0
   44.9670   26.1340   36.0820 H   0  0  0  0  0  0  0  0  0  0  0  0
  1 13  1  0  0  0  0
  1  5  1  0  0  0  0
  2  1  1  0  0  0  0
  3  2  1  0  0  0  0
  3  4  1  0  0  0  0
  4  5  1  0  0  0  0
  4 10  1  0  0  0  0
  5 12  1  1  0  0  0
  6  2  1  0  0  0  0
  7  2  1  0  0  0  0
  8  3  1  0  0  0  0
  9  3  1  0  0  0  0
 11  4  1  0  0  0  0
 13 18  1  0  0  0  0
 14 13  1  0  0  0  0
 15 13  1  0  0  0  0
 16 21  1  0  0  0  0
 16 22  1  0  0  0  0
 17 16  2  0  0  0  0
 18 19  2  0  0  0  0
 18 17  1  0  0  0  0
 19 20  1  0  0  0  0
 20 24  1  0  0  0  0
 20 21  2  0  0  0  0
 23 17  1  0  0  0  0
 25 26  1  0  0  0  0
 25  5  1  0  0  0  0
 26 29  1  1  0  0  0
 27 28  1  0  0  0  0
 27 31  1  0  0  0  0
 27 26  1  0  0  0  0
 28 32  1  6  0  0  0
 28 26  1  0  0  0  0
 28 33  1  0  0  0  0
 30 27  1  0  0  0  0
 33 35  1  0  0  0  0
 33 34  2  0  0  0  0
 35 36  1  0  0  0  0
M  END
>  <minimizedAffinity>
-4.333498

>  <minimizedRMSD>
0.762170255

$$$$
