
 OpenBabel03262519583D

 29 31  0  0  1  0  0  0  0  0999 V2000
   38.3430   23.5700   33.6020 C   0  0  0  0  0  0  0  0  0  0  0  0
   37.4670   22.5540   33.2200 C   0  0  0  0  0  0  0  0  0  0  0  0
   38.2420   21.4300   33.2730 N   0  0  0  0  0  0  0  0  0  0  0  0
   39.4660   21.7940   33.6570 C   0  0  0  0  0  0  0  0  0  0  0  0
   39.5510   23.1030   33.8650 N   0  0  0  0  0  0  0  0  0  0  0  0
   36.4090   22.6460   32.9440 H   0  0  0  0  0  0  0  0  0  0  0  0
   40.2480   21.0280   33.7630 H   0  0  0  0  0  0  0  0  0  0  0  0
   37.9790   24.9710   33.6930 C   0  0  0  0  0  0  0  0  0  0  0  0
   38.1010   25.8100   32.5660 C   0  0  0  0  0  0  0  0  0  0  0  0
   37.7250   27.1630   32.7180 C   0  0  0  0  0  0  0  0  0  0  0  0
   37.2710   27.5720   33.9330 N   0  0  0  0  0  0  0  0  0  0  0  0
   37.1690   26.7300   34.9930 C   0  0  0  0  0  0  0  0  0  0  0  0
   37.5170   25.4400   34.8880 N   0  0  0  0  0  0  0  0  0  0  0  0
   38.4710   25.3430   31.6890 H   0  0  0  0  0  0  0  0  0  0  0  0
   37.8240   27.7750   31.8540 H   0  0  0  0  0  0  0  0  0  0  0  0
   36.7930   27.2030   35.8880 H   0  0  0  0  0  0  0  0  0  0  0  0
   40.7440   23.7450   34.2780 C   0  0  1  0  0  0  0  0  0  0  0  0
   40.8530   24.8440   35.1990 C   0  0  0  0  0  0  0  0  0  0  0  0
   41.1970   23.3920   35.6580 C   0  0  2  0  0  0  0  0  0  0  0  0
   41.5370   23.7030   33.4700 H   0  0  0  0  0  0  0  0  0  0  0  0
   41.7190   25.5400   35.1190 H   0  0  0  0  0  0  0  0  0  0  0  0
   40.0200   25.2870   35.7520 H   0  0  0  0  0  0  0  0  0  0  0  0
   42.6830   23.2380   35.8870 C   0  0  0  0  0  0  0  0  0  0  0  0
   43.0790   21.9470   35.6140 F   0  0  0  0  0  0  0  0  0  0  0  0
   43.3700   24.0200   34.8600 F   0  0  0  0  0  0  0  0  0  0  0  0
   43.1180   23.7160   37.0610 F   0  0  0  0  0  0  0  0  0  0  0  0
   40.3400   23.0880   36.8510 C   0  0  0  0  0  0  0  0  0  0  0  0
   39.7160   23.6760   37.4940 H   0  0  0  0  0  0  0  0  0  0  0  0
   40.4580   21.8680   37.0460 O   0  0  0  0  0  0  0  0  0  0  0  0
  1  8  1  0  0  0  0
  1  5  1  0  0  0  0
  2  3  1  0  0  0  0
  2  1  2  0  0  0  0
  3  4  2  0  0  0  0
  4  7  1  0  0  0  0
  4  5  1  0  0  0  0
  5 17  1  0  0  0  0
  6  2  1  0  0  0  0
  8 13  1  0  0  0  0
  9 10  1  0  0  0  0
  9  8  2  0  0  0  0
 10 11  2  0  0  0  0
 11 12  1  0  0  0  0
 12 16  1  0  0  0  0
 13 12  2  0  0  0  0
 14  9  1  0  0  0  0
 15 10  1  0  0  0  0
 17 20  1  6  0  0  0
 17 18  1  0  0  0  0
 17 19  1  0  0  0  0
 18 19  1  0  0  0  0
 18 22  1  0  0  0  0
 19 23  1  0  0  0  0
 19 27  1  1  0  0  0
 21 18  1  0  0  0  0
 23 26  1  0  0  0  0
 24 23  1  0  0  0  0
 25 23  1  0  0  0  0
 27 29  2  0  0  0  0
 27 28  1  0  0  0  0
M  END
>  <minimizedAffinity>
-3.57672048

>  <minimizedRMSD>
3.45716357

$$$$
