
 OpenBabel03262519113D

 24 26  0  0  0  0  0  0  0  0999 V2000
   37.8770   25.4510   34.9440 C   0  0  0  0  0  0  0  0  0  0  0  0
   37.4310   26.7590   35.1400 C   0  0  0  0  0  0  0  0  0  0  0  0
   36.8880   27.4260   34.0960 C   0  0  0  0  0  0  0  0  0  0  0  0
   36.8090   26.7420   32.8610 C   0  0  0  0  0  0  0  0  0  0  0  0
   37.5490   25.0680   33.2190 S   0  0  0  0  0  0  0  0  0  0  0  0
   37.5160   27.2320   36.1090 H   0  0  0  0  0  0  0  0  0  0  0  0
   36.4970   28.4290   34.0730 H   0  0  0  0  0  0  0  0  0  0  0  0
   37.8960   24.3440   37.1960 C   0  0  0  0  0  0  0  0  0  0  0  0
   38.4700   24.5850   35.9170 C   0  0  0  0  0  0  0  0  0  0  0  0
   39.6440   23.9690   35.5780 C   0  0  0  0  0  0  0  0  0  0  0  0
   40.2320   23.1390   36.4770 N   0  0  0  0  0  0  0  0  0  0  0  0
   39.6720   22.9130   37.7040 C   0  0  0  0  0  0  0  0  0  0  0  0
   38.5190   23.5170   38.0390 N   0  0  0  0  0  0  0  0  0  0  0  0
   36.9780   24.8900   37.3280 H   0  0  0  0  0  0  0  0  0  0  0  0
   40.1270   24.1150   34.6180 H   0  0  0  0  0  0  0  0  0  0  0  0
   40.1730   22.2430   38.3890 H   0  0  0  0  0  0  0  0  0  0  0  0
   36.3270   27.0880   31.5910 C   0  0  0  0  0  0  0  0  0  0  0  0
   35.5850   26.3160   30.9680 O   0  0  0  0  0  0  0  0  0  0  0  0
   36.6680   28.3520   30.9450 C   0  0  0  0  0  0  0  0  0  0  0  0
   36.6890   29.6060   31.4340 N   0  0  0  0  0  0  0  0  0  0  0  0
   37.0520   30.4490   30.5170 O   0  0  0  0  0  0  0  0  0  0  0  0
   37.2890   29.7990   29.3800 C   0  0  0  0  0  0  0  0  0  0  0  0
   37.6040   30.3030   28.4790 H   0  0  0  0  0  0  0  0  0  0  0  0
   37.0460   28.5030   29.6590 N   0  0  0  0  0  0  0  0  0  0  0  0
  1  2  2  0  0  0  0
  1  9  1  0  0  0  0
  2  6  1  0  0  0  0
  3  2  1  0  0  0  0
  4  5  1  0  0  0  0
  4  3  2  0  0  0  0
  5  1  1  0  0  0  0
  7  3  1  0  0  0  0
  8 14  1  0  0  0  0
  8 13  1  0  0  0  0
  9  8  2  0  0  0  0
 10  9  1  0  0  0  0
 10 11  2  0  0  0  0
 11 12  1  0  0  0  0
 12 13  2  0  0  0  0
 12 16  1  0  0  0  0
 15 10  1  0  0  0  0
 17  4  1  0  0  0  0
 18 17  2  0  0  0  0
 19 20  2  0  0  0  0
 19 17  1  0  0  0  0
 21 20  1  0  0  0  0
 22 24  2  0  0  0  0
 22 21  1  0  0  0  0
 23 22  1  0  0  0  0
 24 19  1  0  0  0  0
M  END
>  <minimizedAffinity>
-4.56949234

>  <minimizedRMSD>
0.678756237

$$$$
