
 OpenBabel03262519593D

 29 31  0  0  1  0  0  0  0  0999 V2000
   38.1910   23.6600   33.4310 C   0  0  0  0  0  0  0  0  0  0  0  0
   37.2970   22.6680   33.0280 C   0  0  0  0  0  0  0  0  0  0  0  0
   38.0490   21.5280   33.0680 N   0  0  0  0  0  0  0  0  0  0  0  0
   39.2780   21.8610   33.4650 C   0  0  0  0  0  0  0  0  0  0  0  0
   39.3880   23.1650   33.6940 N   0  0  0  0  0  0  0  0  0  0  0  0
   36.2430   22.7860   32.7480 H   0  0  0  0  0  0  0  0  0  0  0  0
   40.0440   21.0780   33.5620 H   0  0  0  0  0  0  0  0  0  0  0  0
   37.8550   25.0670   33.5430 C   0  0  0  0  0  0  0  0  0  0  0  0
   37.9780   25.9160   32.4240 C   0  0  0  0  0  0  0  0  0  0  0  0
   37.6300   27.2740   32.5960 C   0  0  0  0  0  0  0  0  0  0  0  0
   37.1990   27.6780   33.8220 N   0  0  0  0  0  0  0  0  0  0  0  0
   37.0960   26.8250   34.8730 C   0  0  0  0  0  0  0  0  0  0  0  0
   37.4180   25.5300   34.7490 N   0  0  0  0  0  0  0  0  0  0  0  0
   38.3280   25.4520   31.5370 H   0  0  0  0  0  0  0  0  0  0  0  0
   37.7290   27.8930   31.7380 H   0  0  0  0  0  0  0  0  0  0  0  0
   36.7400   27.2940   35.7790 H   0  0  0  0  0  0  0  0  0  0  0  0
   40.5910   23.7750   34.1240 C   0  0  1  0  0  0  0  0  0  0  0  0
   40.7160   24.8640   35.0550 C   0  0  0  0  0  0  0  0  0  0  0  0
   41.0220   23.4010   35.5060 C   0  0  2  0  0  0  0  0  0  0  0  0
   41.3920   23.7220   33.3240 H   0  0  0  0  0  0  0  0  0  0  0  0
   41.5990   25.5400   34.9890 H   0  0  0  0  0  0  0  0  0  0  0  0
   39.8870   25.3220   35.6040 H   0  0  0  0  0  0  0  0  0  0  0  0
   42.5010   23.2120   35.7490 C   0  0  0  0  0  0  0  0  0  0  0  0
   42.8900   21.9450   35.3700 F   0  0  0  0  0  0  0  0  0  0  0  0
   43.2160   24.0740   34.8080 F   0  0  0  0  0  0  0  0  0  0  0  0
   42.9170   23.5780   36.9690 F   0  0  0  0  0  0  0  0  0  0  0  0
   40.1460   23.1080   36.6880 C   0  0  0  0  0  0  0  0  0  0  0  0
   39.5250   23.7040   37.3270 H   0  0  0  0  0  0  0  0  0  0  0  0
   40.2390   21.8850   36.8770 O   0  0  0  0  0  0  0  0  0  0  0  0
  1  8  1  0  0  0  0
  1  5  1  0  0  0  0
  2  3  1  0  0  0  0
  2  1  2  0  0  0  0
  3  4  2  0  0  0  0
  4  7  1  0  0  0  0
  4  5  1  0  0  0  0
  5 17  1  0  0  0  0
  6  2  1  0  0  0  0
  8 13  1  0  0  0  0
  9 10  1  0  0  0  0
  9  8  2  0  0  0  0
 10 11  2  0  0  0  0
 11 12  1  0  0  0  0
 12 16  1  0  0  0  0
 13 12  2  0  0  0  0
 14  9  1  0  0  0  0
 15 10  1  0  0  0  0
 17 20  1  6  0  0  0
 17 18  1  0  0  0  0
 17 19  1  0  0  0  0
 18 19  1  0  0  0  0
 18 22  1  0  0  0  0
 19 23  1  0  0  0  0
 19 27  1  1  0  0  0
 21 18  1  0  0  0  0
 23 26  1  0  0  0  0
 24 23  1  0  0  0  0
 25 23  1  0  0  0  0
 27 29  2  0  0  0  0
 27 28  1  0  0  0  0
M  END
>  <minimizedAffinity>
-3.59226727

>  <minimizedRMSD>
3.35023236

$$$$
