
 OpenBabel03262519593D

 29 31  0  0  1  0  0  0  0  0999 V2000
   37.6320   23.6040   32.9740 C   0  0  0  0  0  0  0  0  0  0  0  0
   36.6650   22.7960   32.3770 C   0  0  0  0  0  0  0  0  0  0  0  0
   36.8680   21.5760   32.9590 N   0  0  0  0  0  0  0  0  0  0  0  0
   37.8790   21.6960   33.8210 C   0  0  0  0  0  0  0  0  0  0  0  0
   38.3620   22.9330   33.8470 N   0  0  0  0  0  0  0  0  0  0  0  0
   35.9240   23.0810   31.6200 H   0  0  0  0  0  0  0  0  0  0  0  0
   38.2020   20.8180   34.3980 H   0  0  0  0  0  0  0  0  0  0  0  0
   37.8220   25.0100   32.6720 C   0  0  0  0  0  0  0  0  0  0  0  0
   38.7910   25.4080   31.7280 C   0  0  0  0  0  0  0  0  0  0  0  0
   38.9220   26.7920   31.4740 C   0  0  0  0  0  0  0  0  0  0  0  0
   38.1120   27.6500   32.1500 N   0  0  0  0  0  0  0  0  0  0  0  0
   37.1910   27.2230   33.0520 C   0  0  0  0  0  0  0  0  0  0  0  0
   37.0370   25.9190   33.3200 N   0  0  0  0  0  0  0  0  0  0  0  0
   39.3440   24.6200   31.2850 H   0  0  0  0  0  0  0  0  0  0  0  0
   39.6570   27.0660   30.7570 H   0  0  0  0  0  0  0  0  0  0  0  0
   36.6250   28.0230   33.5060 H   0  0  0  0  0  0  0  0  0  0  0  0
   39.4400   23.3240   34.6780 C   0  0  1  0  0  0  0  0  0  0  0  0
   39.5970   24.5890   35.3430 C   0  0  0  0  0  0  0  0  0  0  0  0
   39.1310   23.3300   36.1410 C   0  0  2  0  0  0  0  0  0  0  0  0
   40.4030   22.8070   34.3780 H   0  0  0  0  0  0  0  0  0  0  0  0
   40.6210   24.9570   35.5830 H   0  0  0  0  0  0  0  0  0  0  0  0
   38.8590   25.3970   35.3400 H   0  0  0  0  0  0  0  0  0  0  0  0
   40.2130   22.8610   37.0850 C   0  0  0  0  0  0  0  0  0  0  0  0
   39.8130   23.0280   38.3930 F   0  0  0  0  0  0  0  0  0  0  0  0
   40.3160   21.4080   36.9520 F   0  0  0  0  0  0  0  0  0  0  0  0
   41.4350   23.3400   36.8130 F   0  0  0  0  0  0  0  0  0  0  0  0
   37.8280   23.6770   36.7970 C   0  0  0  0  0  0  0  0  0  0  0  0
   36.8820   23.1820   36.8920 H   0  0  0  0  0  0  0  0  0  0  0  0
   37.9960   24.7970   37.3040 O   0  0  0  0  0  0  0  0  0  0  0  0
  1  5  1  0  0  0  0
  2  3  1  0  0  0  0
  2  1  2  0  0  0  0
  3  4  2  0  0  0  0
  4  5  1  0  0  0  0
  4  7  1  0  0  0  0
  5 17  1  0  0  0  0
  6  2  1  0  0  0  0
  8  1  1  0  0  0  0
  8 13  1  0  0  0  0
  9  8  2  0  0  0  0
 10  9  1  0  0  0  0
 10 11  2  0  0  0  0
 11 12  1  0  0  0  0
 12 13  2  0  0  0  0
 12 16  1  0  0  0  0
 14  9  1  0  0  0  0
 15 10  1  0  0  0  0
 17 20  1  6  0  0  0
 17 18  1  0  0  0  0
 17 19  1  0  0  0  0
 18 21  1  0  0  0  0
 18 19  1  0  0  0  0
 19 27  1  1  0  0  0
 19 23  1  0  0  0  0
 22 18  1  0  0  0  0
 23 24  1  0  0  0  0
 25 23  1  0  0  0  0
 26 23  1  0  0  0  0
 27 28  1  0  0  0  0
 27 29  2  0  0  0  0
M  END
>  <minimizedAffinity>
-4.42059803

>  <minimizedRMSD>
1.80601299

$$$$
