
 OpenBabel03262519583D

 29 31  0  0  1  0  0  0  0  0999 V2000
   38.1230   23.7240   33.2780 C   0  0  0  0  0  0  0  0  0  0  0  0
   37.2300   22.7720   32.7870 C   0  0  0  0  0  0  0  0  0  0  0  0
   37.9560   21.6140   32.8080 N   0  0  0  0  0  0  0  0  0  0  0  0
   39.1710   21.9010   33.2780 C   0  0  0  0  0  0  0  0  0  0  0  0
   39.2950   23.1900   33.5740 N   0  0  0  0  0  0  0  0  0  0  0  0
   36.1930   22.9260   32.4620 H   0  0  0  0  0  0  0  0  0  0  0  0
   39.9150   21.0970   33.3750 H   0  0  0  0  0  0  0  0  0  0  0  0
   37.8110   25.1310   33.4400 C   0  0  0  0  0  0  0  0  0  0  0  0
   37.9710   26.0220   32.3590 C   0  0  0  0  0  0  0  0  0  0  0  0
   37.6430   27.3780   32.5790 C   0  0  0  0  0  0  0  0  0  0  0  0
   37.1970   27.7400   33.8120 N   0  0  0  0  0  0  0  0  0  0  0  0
   37.0570   26.8480   34.8260 C   0  0  0  0  0  0  0  0  0  0  0  0
   37.3580   25.5530   34.6560 N   0  0  0  0  0  0  0  0  0  0  0  0
   38.3290   25.5870   31.4610 H   0  0  0  0  0  0  0  0  0  0  0  0
   37.7710   28.0290   31.7490 H   0  0  0  0  0  0  0  0  0  0  0  0
   36.6920   27.2880   35.7430 H   0  0  0  0  0  0  0  0  0  0  0  0
   40.4880   23.7530   34.0890 C   0  0  1  0  0  0  0  0  0  0  0  0
   40.5970   24.9180   34.9250 C   0  0  0  0  0  0  0  0  0  0  0  0
   40.7260   23.4900   35.5420 C   0  0  2  0  0  0  0  0  0  0  0  0
   41.3680   23.5620   33.4010 H   0  0  0  0  0  0  0  0  0  0  0  0
   41.5340   25.5190   34.9050 H   0  0  0  0  0  0  0  0  0  0  0  0
   39.7520   25.4870   35.3250 H   0  0  0  0  0  0  0  0  0  0  0  0
   42.1470   23.2200   35.9780 C   0  0  0  0  0  0  0  0  0  0  0  0
   42.1620   22.6200   37.2190 F   0  0  0  0  0  0  0  0  0  0  0  0
   42.6890   22.1820   35.1010 F   0  0  0  0  0  0  0  0  0  0  0  0
   42.9750   24.2680   35.8590 F   0  0  0  0  0  0  0  0  0  0  0  0
   39.7000   23.3810   36.6300 C   0  0  0  0  0  0  0  0  0  0  0  0
   39.2360   24.0810   37.2960 H   0  0  0  0  0  0  0  0  0  0  0  0
   39.3980   22.1780   36.6850 O   0  0  0  0  0  0  0  0  0  0  0  0
  1  8  1  0  0  0  0
  1  5  1  0  0  0  0
  2  3  1  0  0  0  0
  2  1  2  0  0  0  0
  3  4  2  0  0  0  0
  4  7  1  0  0  0  0
  4  5  1  0  0  0  0
  5 17  1  0  0  0  0
  6  2  1  0  0  0  0
  8 13  1  0  0  0  0
  9 10  1  0  0  0  0
  9  8  2  0  0  0  0
 10 11  2  0  0  0  0
 11 12  1  0  0  0  0
 12 16  1  0  0  0  0
 13 12  2  0  0  0  0
 14  9  1  0  0  0  0
 15 10  1  0  0  0  0
 17 20  1  6  0  0  0
 17 18  1  0  0  0  0
 17 19  1  0  0  0  0
 18 22  1  0  0  0  0
 18 19  1  0  0  0  0
 19 23  1  0  0  0  0
 19 27  1  1  0  0  0
 21 18  1  0  0  0  0
 23 24  1  0  0  0  0
 25 23  1  0  0  0  0
 26 23  1  0  0  0  0
 27 29  2  0  0  0  0
 27 28  1  0  0  0  0
M  END
>  <minimizedAffinity>
-3.60075164

>  <minimizedRMSD>
3.05352902

$$$$
