
 OpenBabel03262519593D

 29 31  0  0  1  0  0  0  0  0999 V2000
   39.9680   23.4470   34.1180 C   0  0  0  0  0  0  0  0  0  0  0  0
   39.6240   22.1070   33.9440 C   0  0  0  0  0  0  0  0  0  0  0  0
   40.8030   21.5210   33.5790 N   0  0  0  0  0  0  0  0  0  0  0  0
   41.7410   22.4700   33.5510 C   0  0  0  0  0  0  0  0  0  0  0  0
   41.2510   23.6590   33.8790 N   0  0  0  0  0  0  0  0  0  0  0  0
   38.6370   21.6440   34.0710 H   0  0  0  0  0  0  0  0  0  0  0  0
   42.7710   22.2010   33.2770 H   0  0  0  0  0  0  0  0  0  0  0  0
   39.0350   24.4870   34.5070 C   0  0  0  0  0  0  0  0  0  0  0  0
   38.1980   25.0860   33.5430 C   0  0  0  0  0  0  0  0  0  0  0  0
   37.3060   26.0870   33.9870 C   0  0  0  0  0  0  0  0  0  0  0  0
   37.3100   26.4120   35.3090 N   0  0  0  0  0  0  0  0  0  0  0  0
   38.1330   25.8090   36.2040 C   0  0  0  0  0  0  0  0  0  0  0  0
   38.9930   24.8550   35.8200 N   0  0  0  0  0  0  0  0  0  0  0  0
   38.3140   24.7240   32.5540 H   0  0  0  0  0  0  0  0  0  0  0  0
   36.6850   26.5220   33.2430 H   0  0  0  0  0  0  0  0  0  0  0  0
   38.0180   26.1750   37.2140 H   0  0  0  0  0  0  0  0  0  0  0  0
   42.0390   24.8340   33.9240 C   0  0  1  0  0  0  0  0  0  0  0  0
   43.2240   25.1030   33.1550 C   0  0  0  0  0  0  0  0  0  0  0  0
   41.8600   25.7520   32.7570 C   0  0  2  0  0  0  0  0  0  0  0  0
   42.0000   25.3210   34.9470 H   0  0  0  0  0  0  0  0  0  0  0  0
   43.9900   25.8050   33.5570 H   0  0  0  0  0  0  0  0  0  0  0  0
   43.6330   24.4480   32.3800 H   0  0  0  0  0  0  0  0  0  0  0  0
   41.8720   27.2380   33.0290 C   0  0  0  0  0  0  0  0  0  0  0  0
   40.6550   27.6430   33.5320 F   0  0  0  0  0  0  0  0  0  0  0  0
   42.7880   27.4740   34.1450 F   0  0  0  0  0  0  0  0  0  0  0  0
   42.3310   27.9860   32.0160 F   0  0  0  0  0  0  0  0  0  0  0  0
   41.5860   25.3730   31.3320 C   0  0  0  0  0  0  0  0  0  0  0  0
   42.1650   24.9190   30.5540 H   0  0  0  0  0  0  0  0  0  0  0  0
   40.4100   25.7060   31.1180 O   0  0  0  0  0  0  0  0  0  0  0  0
  1  8  1  0  0  0  0
  2  6  1  0  0  0  0
  2  1  2  0  0  0  0
  3  2  1  0  0  0  0
  4  3  2  0  0  0  0
  4  5  1  0  0  0  0
  5 17  1  0  0  0  0
  5  1  1  0  0  0  0
  7  4  1  0  0  0  0
  8 13  1  0  0  0  0
  9 10  1  0  0  0  0
  9  8  2  0  0  0  0
 10 11  2  0  0  0  0
 11 12  1  0  0  0  0
 12 16  1  0  0  0  0
 13 12  2  0  0  0  0
 14  9  1  0  0  0  0
 15 10  1  0  0  0  0
 17 20  1  1  0  0  0
 18 21  1  0  0  0  0
 18 17  1  0  0  0  0
 19 27  1  6  0  0  0
 19 23  1  0  0  0  0
 19 18  1  0  0  0  0
 19 17  1  0  0  0  0
 22 18  1  0  0  0  0
 23 24  1  0  0  0  0
 23 25  1  0  0  0  0
 26 23  1  0  0  0  0
 28 27  1  0  0  0  0
 29 27  2  0  0  0  0
M  END
>  <minimizedAffinity>
-2.98348689

>  <minimizedRMSD>
5.27051735

$$$$
