
 OpenBabel03262518553D

 24 26  0  0  0  0  0  0  0  0999 V2000
   38.1500   22.9590   34.4720 C   0  0  0  0  0  0  0  0  0  0  0  0
   39.1030   22.7200   33.9690 H   0  0  0  0  0  0  0  0  0  0  0  0
   37.8110   23.9520   34.1090 H   0  0  0  0  0  0  0  0  0  0  0  0
   39.7530   22.6640   37.7730 C   0  0  0  0  0  0  0  0  0  0  0  0
   38.9300   23.4250   38.6190 C   0  0  0  0  0  0  0  0  0  0  0  0
   37.8180   24.0380   38.0340 C   0  0  0  0  0  0  0  0  0  0  0  0
   37.5750   23.8810   36.6920 N   0  0  0  0  0  0  0  0  0  0  0  0
   38.4070   23.1350   35.9340 C   0  0  0  0  0  0  0  0  0  0  0  0
   39.4800   22.5310   36.4510 N   0  0  0  0  0  0  0  0  0  0  0  0
   40.6180   22.1830   38.2120 H   0  0  0  0  0  0  0  0  0  0  0  0
   39.1110   23.5530   39.6690 H   0  0  0  0  0  0  0  0  0  0  0  0
   37.1090   24.6550   38.6050 H   0  0  0  0  0  0  0  0  0  0  0  0
   37.1760   21.9140   34.2530 N   0  0  0  0  0  0  0  0  0  0  0  0
   36.3410   21.2500   35.0720 C   0  0  0  0  0  0  0  0  0  0  0  0
   35.6170   20.3520   34.3840 N   0  0  0  0  0  0  0  0  0  0  0  0
   35.9770   20.4220   33.0920 C   0  0  0  0  0  0  0  0  0  0  0  0
   35.5380   19.7180   31.9900 C   0  0  0  0  0  0  0  0  0  0  0  0
   36.0880   20.0030   30.7940 N   0  0  0  0  0  0  0  0  0  0  0  0
   37.0400   20.9640   30.7480 C   0  0  0  0  0  0  0  0  0  0  0  0
   37.4810   21.6600   31.8030 N   0  0  0  0  0  0  0  0  0  0  0  0
   36.9460   21.3920   33.0160 C   0  0  0  0  0  0  0  0  0  0  0  0
   34.5250   18.7080   32.0990 N   0  0  0  0  0  0  0  0  0  0  0  0
   34.4120   17.8210   32.6000 H   0  0  0  0  0  0  0  0  0  0  0  0
   33.7320   19.0040   31.5010 H   0  0  0  0  0  0  0  0  0  0  0  0
  1  8  1  0  0  0  0
  2  1  1  0  0  0  0
  3  1  1  0  0  0  0
  4 10  1  0  0  0  0
  4  5  1  0  0  0  0
  5 11  1  0  0  0  0
  6 12  1  0  0  0  0
  6  5  2  0  0  0  0
  7  6  1  0  0  0  0
  8  9  1  0  0  0  0
  8  7  2  0  0  0  0
  9  4  2  0  0  0  0
 13  1  1  0  0  0  0
 13 14  1  0  0  0  0
 15 14  2  0  0  0  0
 16 15  1  0  0  0  0
 17 22  1  0  0  0  0
 17 16  2  0  0  0  0
 18 17  1  0  0  0  0
 19 18  2  0  0  0  0
 19 20  1  0  0  0  0
 20 21  2  0  0  0  0
 21 16  1  0  0  0  0
 21 13  1  0  0  0  0
 22 23  1  0  0  0  0
 24 22  1  0  0  0  0
M  END
>  <minimizedAffinity>
-4.84259272

>  <minimizedRMSD>
1.63534629

$$$$
