
 OpenBabel03262516393D

 35 37  0  0  1  0  0  0  0  0999 V2000
   39.7160   22.8870   37.9560 C   0  0  0  0  0  0  0  0  0  0  0  0
   38.4730   23.3110   38.4580 C   0  0  0  0  0  0  0  0  0  0  0  0
   37.7040   24.1410   37.6420 C   0  0  0  0  0  0  0  0  0  0  0  0
   38.2040   24.4790   36.4300 N   0  0  0  0  0  0  0  0  0  0  0  0
   39.4130   24.0520   35.9700 C   0  0  0  0  0  0  0  0  0  0  0  0
   40.1520   23.2540   36.7580 N   0  0  0  0  0  0  0  0  0  0  0  0
   39.8020   24.4880   34.6860 N   0  0  0  0  0  0  0  0  0  0  0  0
   38.8440   24.4290   33.6090 C   0  0  0  0  0  0  0  0  0  0  0  0
   39.2970   25.1240   32.3620 C   0  0  0  0  0  0  0  0  0  0  0  0
   40.2240   26.1540   32.6980 N   0  0  0  0  0  0  0  0  0  0  0  0
   41.4440   25.4800   33.1430 C   0  0  0  0  0  0  0  0  0  0  0  0
   41.1810   24.9720   34.5590 C   0  0  2  0  0  0  0  0  0  0  0  0
   40.3490   22.2420   38.5530 H   0  0  0  0  0  0  0  0  0  0  0  0
   38.1230   23.0150   39.4240 H   0  0  0  0  0  0  0  0  0  0  0  0
   36.7370   24.5100   37.9570 H   0  0  0  0  0  0  0  0  0  0  0  0
   37.8370   24.7090   33.9530 H   0  0  0  0  0  0  0  0  0  0  0  0
   38.7840   23.3340   33.3400 H   0  0  0  0  0  0  0  0  0  0  0  0
   39.7010   24.4350   31.5880 H   0  0  0  0  0  0  0  0  0  0  0  0
   38.3910   25.6140   31.9140 H   0  0  0  0  0  0  0  0  0  0  0  0
   40.4090   26.8310   31.9290 H   0  0  0  0  0  0  0  0  0  0  0  0
   42.3000   26.1760   33.1600 H   0  0  0  0  0  0  0  0  0  0  0  0
   41.6330   24.5950   32.5020 H   0  0  0  0  0  0  0  0  0  0  0  0
   41.2750   25.8410   35.2090 H   0  0  0  0  0  0  0  0  0  0  0  0
   42.1480   23.9290   34.9810 C   0  0  0  0  0  0  0  0  0  0  0  0
   43.0850   24.2060   35.9480 C   0  0  0  0  0  0  0  0  0  0  0  0
   44.0330   23.3410   36.4350 C   0  0  0  0  0  0  0  0  0  0  0  0
   44.0160   22.0630   35.8700 C   0  0  0  0  0  0  0  0  0  0  0  0
   43.0740   21.7940   34.9010 C   0  0  0  0  0  0  0  0  0  0  0  0
   42.1760   22.6910   34.4740 N   0  0  0  0  0  0  0  0  0  0  0  0
   43.0890   25.2060   36.3810 H   0  0  0  0  0  0  0  0  0  0  0  0
   44.7420   23.6110   37.1930 H   0  0  0  0  0  0  0  0  0  0  0  0
   44.7320   21.3360   36.2070 H   0  0  0  0  0  0  0  0  0  0  0  0
   43.0550   20.4530   34.3080 C   0  0  0  0  0  0  0  0  0  0  0  0
   42.9990   20.3050   33.2390 H   0  0  0  0  0  0  0  0  0  0  0  0
   43.1050   19.4170   35.0210 O   0  0  0  0  0  0  0  0  0  0  0  0
  1  2  1  0  0  0  0
  1 13  1  0  0  0  0
  2 14  1  0  0  0  0
  3 15  1  0  0  0  0
  3  2  2  0  0  0  0
  4  3  1  0  0  0  0
  5  4  2  0  0  0  0
  5  6  1  0  0  0  0
  6  1  2  0  0  0  0
  7  5  1  0  0  0  0
  8 16  1  0  0  0  0
  8  7  1  0  0  0  0
  9 10  1  0  0  0  0
  9  8  1  0  0  0  0
 10 11  1  0  0  0  0
 11 21  1  0  0  0  0
 11 12  1  0  0  0  0
 12  7  1  0  0  0  0
 12 24  1  0  0  0  0
 12 23  1  1  0  0  0
 17  8  1  0  0  0  0
 18  9  1  0  0  0  0
 19  9  1  0  0  0  0
 20 10  1  0  0  0  0
 22 11  1  0  0  0  0
 24 25  1  0  0  0  0
 25 30  1  0  0  0  0
 25 26  2  0  0  0  0
 26 31  1  0  0  0  0
 27 32  1  0  0  0  0
 27 26  1  0  0  0  0
 28 27  2  0  0  0  0
 29 28  1  0  0  0  0
 29 24  2  0  0  0  0
 33 28  1  0  0  0  0
 33 35  2  0  0  0  0
 34 33  1  0  0  0  0
M  END
>  <minimizedAffinity>
-4.19255066

>  <minimizedRMSD>
1.16467917

$$$$
