
 OpenBabel03262519503D

 18 18  0  0  0  0  0  0  0  0999 V2000
   40.0010   22.6430   37.5930 C   0  0  0  0  0  0  0  0  0  0  0  0
   38.9860   23.5550   37.2880 C   0  0  0  0  0  0  0  0  0  0  0  0
   39.0490   24.3720   36.2160 C   0  0  0  0  0  0  0  0  0  0  0  0
   40.1570   24.2670   35.4330 N   0  0  0  0  0  0  0  0  0  0  0  0
   41.1320   23.3920   35.7230 C   0  0  0  0  0  0  0  0  0  0  0  0
   41.0880   22.5840   36.7700 N   0  0  0  0  0  0  0  0  0  0  0  0
   40.0960   21.9300   38.4040 H   0  0  0  0  0  0  0  0  0  0  0  0
   41.9140   23.4630   34.9900 H   0  0  0  0  0  0  0  0  0  0  0  0
   37.9510   25.2760   35.9880 C   0  0  0  0  0  0  0  0  0  0  0  0
   37.5210   25.1160   34.9710 H   0  0  0  0  0  0  0  0  0  0  0  0
   37.1070   25.0200   36.6790 H   0  0  0  0  0  0  0  0  0  0  0  0
   38.3250   26.6870   36.0990 C   0  0  0  0  0  0  0  0  0  0  0  0
   38.7440   27.1690   35.1960 H   0  0  0  0  0  0  0  0  0  0  0  0
   38.5910   27.1020   37.0700 H   0  0  0  0  0  0  0  0  0  0  0  0
   37.2790   27.1490   36.0210 H   0  0  0  0  0  0  0  0  0  0  0  0
   37.9970   23.4270   38.2660 C   0  0  0  0  0  0  0  0  0  0  0  0
   37.2550   23.4750   39.0230 H   0  0  0  0  0  0  0  0  0  0  0  0
   37.3280   22.4890   38.7810 O   0  0  0  0  0  0  0  0  0  0  0  0
  1  7  1  0  0  0  0
  2  1  1  0  0  0  0
  2 16  1  0  0  0  0
  3  2  2  0  0  0  0
  4  5  2  0  0  0  0
  4  3  1  0  0  0  0
  5  6  1  0  0  0  0
  6  1  2  0  0  0  0
  8  5  1  0  0  0  0
  9 12  1  0  0  0  0
  9  3  1  0  0  0  0
  9 11  1  0  0  0  0
 10  9  1  0  0  0  0
 12 14  1  0  0  0  0
 13 12  1  0  0  0  0
 15 12  1  0  0  0  0
 16 18  1  0  0  0  0
 18 17  1  0  0  0  0
M  END
>  <minimizedAffinity>
-3.42755485

>  <minimizedRMSD>
1.92797101

$$$$
