
 OpenBabel03262516343D

 26 27  0  0  1  0  0  0  0  0999 V2000
   39.8450   22.7220   37.0850 C   0  0  0  0  0  0  0  0  0  0  0  0
   39.0430   23.2490   38.1290 C   0  0  0  0  0  0  0  0  0  0  0  0
   37.6660   23.2580   37.9380 C   0  0  0  0  0  0  0  0  0  0  0  0
   37.1720   22.7640   36.7700 N   0  0  0  0  0  0  0  0  0  0  0  0
   37.9640   22.2650   35.7870 C   0  0  0  0  0  0  0  0  0  0  0  0
   39.3100   22.2490   35.9560 N   0  0  0  0  0  0  0  0  0  0  0  0
   37.3460   21.7710   34.6030 N   0  0  0  0  0  0  0  0  0  0  0  0
   36.1620   20.9550   34.7680 C   0  0  0  0  0  0  0  0  0  0  0  0
   35.4470   20.7020   33.4760 C   0  0  0  0  0  0  0  0  0  0  0  0
   35.6560   21.7910   32.5850 N   0  0  0  0  0  0  0  0  0  0  0  0
   37.0740   21.7390   32.1680 C   0  0  0  0  0  0  0  0  0  0  0  0
   37.9600   22.1340   33.3220 C   0  0  2  0  0  0  0  0  0  0  0  0
   40.9180   22.7280   37.2620 H   0  0  0  0  0  0  0  0  0  0  0  0
   39.4000   23.6410   39.0510 H   0  0  0  0  0  0  0  0  0  0  0  0
   37.0180   23.6510   38.7090 H   0  0  0  0  0  0  0  0  0  0  0  0
   35.4720   21.5420   35.4230 H   0  0  0  0  0  0  0  0  0  0  0  0
   36.3900   20.0210   35.3410 H   0  0  0  0  0  0  0  0  0  0  0  0
   34.3720   20.4820   33.6690 H   0  0  0  0  0  0  0  0  0  0  0  0
   35.9220   19.7810   33.0360 H   0  0  0  0  0  0  0  0  0  0  0  0
   35.1280   21.6190   31.6800 H   0  0  0  0  0  0  0  0  0  0  0  0
   37.1850   22.4680   31.3170 H   0  0  0  0  0  0  0  0  0  0  0  0
   37.2610   20.7020   31.8190 H   0  0  0  0  0  0  0  0  0  0  0  0
   38.0500   23.2390   33.3140 H   0  0  0  0  0  0  0  0  0  0  0  0
   39.2980   21.4730   33.2190 C   0  0  0  0  0  0  0  0  0  0  0  0
   40.1370   21.8520   33.8000 H   0  0  0  0  0  0  0  0  0  0  0  0
   39.5770   20.4950   32.5160 O   0  0  0  0  0  0  0  0  0  0  0  0
  1 13  1  0  0  0  0
  1  2  1  0  0  0  0
  2 14  1  0  0  0  0
  3  2  2  0  0  0  0
  3 15  1  0  0  0  0
  4  3  1  0  0  0  0
  5  6  1  0  0  0  0
  5  4  2  0  0  0  0
  6  1  2  0  0  0  0
  7  8  1  0  0  0  0
  7  5  1  0  0  0  0
  8 17  1  0  0  0  0
  8 16  1  0  0  0  0
  9 18  1  0  0  0  0
  9  8  1  0  0  0  0
 10  9  1  0  0  0  0
 11 10  1  0  0  0  0
 11 12  1  0  0  0  0
 12 23  1  6  0  0  0
 12  7  1  0  0  0  0
 19  9  1  0  0  0  0
 20 10  1  0  0  0  0
 21 11  1  0  0  0  0
 22 11  1  0  0  0  0
 24 12  1  0  0  0  0
 24 25  1  0  0  0  0
 26 24  2  0  0  0  0
M  END
>  <minimizedAffinity>
-3.83120489

>  <minimizedRMSD>
0.343437821

$$$$
