
 OpenBabel03262519593D

 29 31  0  0  1  0  0  0  0  0999 V2000
   38.0400   23.5350   33.3760 C   0  0  0  0  0  0  0  0  0  0  0  0
   37.0810   22.7210   32.7740 C   0  0  0  0  0  0  0  0  0  0  0  0
   37.6250   21.4700   32.8650 N   0  0  0  0  0  0  0  0  0  0  0  0
   38.8060   21.5800   33.4740 C   0  0  0  0  0  0  0  0  0  0  0  0
   39.0810   22.8390   33.7970 N   0  0  0  0  0  0  0  0  0  0  0  0
   36.1220   23.0230   32.3350 H   0  0  0  0  0  0  0  0  0  0  0  0
   39.4100   20.6770   33.6450 H   0  0  0  0  0  0  0  0  0  0  0  0
   37.9180   24.9740   33.5170 C   0  0  0  0  0  0  0  0  0  0  0  0
   38.3670   25.8280   32.4890 C   0  0  0  0  0  0  0  0  0  0  0  0
   38.2140   27.2190   32.6850 C   0  0  0  0  0  0  0  0  0  0  0  0
   37.6480   27.6460   33.8460 N   0  0  0  0  0  0  0  0  0  0  0  0
   37.2290   26.7880   34.8110 C   0  0  0  0  0  0  0  0  0  0  0  0
   37.3580   25.4620   34.6610 N   0  0  0  0  0  0  0  0  0  0  0  0
   38.7860   25.3430   31.6450 H   0  0  0  0  0  0  0  0  0  0  0  0
   38.5580   27.8420   31.8960 H   0  0  0  0  0  0  0  0  0  0  0  0
   36.8010   27.2790   35.6720 H   0  0  0  0  0  0  0  0  0  0  0  0
   40.2760   23.2250   34.4520 C   0  0  1  0  0  0  0  0  0  0  0  0
   40.4450   24.3430   35.3410 C   0  0  0  0  0  0  0  0  0  0  0  0
   40.3250   22.8930   35.9090 C   0  0  2  0  0  0  0  0  0  0  0  0
   41.1910   22.9390   33.8470 H   0  0  0  0  0  0  0  0  0  0  0  0
   41.4490   24.8150   35.4400 H   0  0  0  0  0  0  0  0  0  0  0  0
   39.6430   25.0060   35.6770 H   0  0  0  0  0  0  0  0  0  0  0  0
   41.6470   22.4260   36.4730 C   0  0  0  0  0  0  0  0  0  0  0  0
   41.4760   21.2660   37.1960 F   0  0  0  0  0  0  0  0  0  0  0  0
   42.4800   21.9990   35.3500 F   0  0  0  0  0  0  0  0  0  0  0  0
   42.3480   23.3770   37.1080 F   0  0  0  0  0  0  0  0  0  0  0  0
   39.1860   22.8900   36.8840 C   0  0  0  0  0  0  0  0  0  0  0  0
   38.1200   22.8300   36.7890 H   0  0  0  0  0  0  0  0  0  0  0  0
   39.7060   22.9830   38.0070 O   0  0  0  0  0  0  0  0  0  0  0  0
  1  8  1  0  0  0  0
  1  5  1  0  0  0  0
  2  3  1  0  0  0  0
  2  1  2  0  0  0  0
  3  4  2  0  0  0  0
  4  7  1  0  0  0  0
  4  5  1  0  0  0  0
  5 17  1  0  0  0  0
  6  2  1  0  0  0  0
  8 13  1  0  0  0  0
  9 10  1  0  0  0  0
  9  8  2  0  0  0  0
 10 11  2  0  0  0  0
 11 12  1  0  0  0  0
 12 16  1  0  0  0  0
 13 12  2  0  0  0  0
 14  9  1  0  0  0  0
 15 10  1  0  0  0  0
 17 20  1  6  0  0  0
 17 18  1  0  0  0  0
 17 19  1  0  0  0  0
 18 21  1  0  0  0  0
 18 22  1  0  0  0  0
 18 19  1  0  0  0  0
 19 23  1  0  0  0  0
 19 27  1  1  0  0  0
 23 26  1  0  0  0  0
 23 24  1  0  0  0  0
 25 23  1  0  0  0  0
 27 29  2  0  0  0  0
 28 27  1  0  0  0  0
M  END
>  <minimizedAffinity>
-3.80935955

>  <minimizedRMSD>
2.79413056

$$$$
