
     RDKit          3D

  0  0  0  0  0  0  0  0  0  0999 V3000
M  V30 BEGIN CTAB
M  V30 COUNTS 1171 1001 0 0 0
M  V30 BEGIN ATOM
M  V30 1 N 24.403000 49.732000 56.047000 0
M  V30 2 C 25.017000 47.371000 55.791000 0
M  V30 3 O 25.362000 47.677000 54.623000 0
M  V30 4 C 22.690000 47.898000 56.478000 0
M  V30 5 C 22.153000 47.987000 55.023000 0
M  V30 6 S 20.401000 47.477000 54.719000 0
M  V30 7 C 20.342000 47.499000 52.929000 0
M  V30 8 N 25.330000 46.168000 56.313000 0
M  V30 9 C 25.378000 43.728000 55.842000 0
M  V30 10 O 24.705000 43.583000 56.854000 0
M  V30 11 C 27.571000 44.998000 56.195000 0
M  V30 12 C 27.733000 44.711000 57.718000 0
M  V30 13 C 27.637000 45.901000 58.672000 0
M  V30 14 N 28.081000 45.615000 60.063000 0
M  V30 15 C 27.323000 45.267000 61.087000 0
M  V30 16 N 26.052000 45.436000 61.059000 0 CHG=1
M  V30 17 N 27.872000 44.698000 62.161000 0
M  V30 18 N 25.536000 42.889000 54.820000 0
M  V30 19 C 25.391000 40.470000 54.139000 0
M  V30 20 O 26.388000 40.602000 53.410000 0
M  V30 21 C 23.591000 42.179000 53.569000 0
M  V30 22 C 22.593000 43.228000 54.093000 0
M  V30 23 C 22.828000 41.019000 52.892000 0
M  V30 24 C 22.789000 44.503000 53.291000 0
M  V30 25 N 24.816000 39.287000 54.449000 0
M  V30 26 C 25.187000 38.002000 53.799000 0 CFG=2
M  V30 27 C 23.955000 37.435000 53.075000 0
M  V30 28 O 22.793000 37.637000 53.508000 0
M  V30 29 C 25.751000 37.009000 54.907000 0 CFG=2
M  V30 30 C 26.983000 37.653000 55.640000 0
M  V30 31 C 25.928000 35.569000 54.425000 0
M  V30 32 C 27.600000 36.753000 56.693000 0
M  V30 33 N 24.155000 36.584000 52.025000 0
M  V30 34 C 23.095000 36.011000 51.213000 0 CFG=2
M  V30 35 C 23.420000 34.547000 50.980000 0
M  V30 36 O 24.493000 34.198000 50.397000 0
M  V30 37 C 23.033000 36.840000 49.899000 0
M  V30 38 C 21.755000 36.636000 49.021000 0
M  V30 39 C 21.483000 37.796000 47.975000 0
M  V30 40 C 21.683000 35.272000 48.224000 0
M  V30 41 N 22.468000 33.670000 51.372000 0
M  V30 42 C 22.583000 32.214000 51.274000 0 CFG=2
M  V30 43 C 21.276000 31.604000 50.655000 0
M  V30 44 O 20.451000 32.420000 50.198000 0
M  V30 45 C 22.940000 31.634000 52.628000 0
M  V30 46 C 24.384000 31.983000 53.051000 0
M  V30 47 C 24.545000 31.777000 54.524000 0
M  V30 48 C 25.507000 31.043000 52.473000 0
M  V30 49 N 21.122000 30.307000 50.434000 0
M  V30 50 C 20.005000 29.778000 49.700000 0
M  V30 51 C 20.373000 28.600000 48.849000 0
M  V30 52 O 21.541000 28.180000 48.699000 0
M  V30 53 N 19.403000 28.085000 48.136000 0
M  V30 54 C 19.403000 27.020000 47.070000 0 CFG=2
M  V30 55 C 20.391000 27.301000 45.967000 0
M  V30 56 O 20.910000 28.409000 45.699000 0
M  V30 57 C 17.966000 27.059000 46.472000 0
M  V30 58 N 20.541000 26.267000 45.103000 0
M  V30 59 C 21.308000 26.394000 43.870000 0 CFG=2
M  V30 60 C 20.791000 27.376000 42.828000 0
M  V30 61 O 19.721000 27.176000 42.212000 0
M  V30 62 C 21.321000 24.913000 43.331000 0
M  V30 63 C 21.084000 24.064000 44.491000 0
M  V30 64 C 20.038000 24.881000 45.224000 0
M  V30 65 N 21.659000 28.352000 42.441000 0
M  V30 66 C 21.318000 29.296000 41.352000 0
M  V30 67 C 20.246000 30.279000 41.822000 0
M  V30 68 O 20.543000 31.294000 42.437000 0
M  V30 69 N 18.967000 30.049000 41.524000 0
M  V30 70 C 17.778000 30.817000 41.939000 0 CFG=2
M  V30 71 C 17.900000 32.322000 41.810000 0
M  V30 72 O 17.503000 33.130000 42.634000 0
M  V30 73 C 17.134000 30.384000 43.296000 0
M  V30 74 N 18.516000 32.769000 40.739000 0
M  V30 75 C 18.813000 34.137000 40.374000 0
M  V30 76 C 19.514000 35.010000 41.454000 0
M  V30 77 O 19.308000 36.237000 41.516000 0
M  V30 78 N 20.135000 34.442000 42.487000 0
M  V30 79 C 20.827000 35.104000 43.625000 0 CFG=2
M  V30 80 C 21.800000 36.246000 43.326000 0
M  V30 81 O 21.720000 37.319000 43.802000 0
M  V30 82 C 21.575000 34.090000 44.534000 0
M  V30 83 C 20.746000 33.009000 45.181000 0
M  V30 84 C 21.475000 31.909000 45.986000 0
M  V30 85 C 22.595000 31.324000 45.173000 0
M  V30 86 N 23.395000 30.282000 45.960000 0 CHG=1
M  V30 87 N 22.620000 36.096000 42.228000 0
M  V30 88 C 23.565000 37.054000 41.585000 0
M  V30 89 C 22.785000 38.196000 40.982000 0
M  V30 90 O 22.976000 39.404000 41.243000 0
M  V30 91 N 21.872000 37.898000 40.059000 0
M  V30 92 C 20.915000 38.801000 39.395000 0 CFG=2
M  V30 93 C 20.220000 39.722000 40.373000 0
M  V30 94 O 20.230000 40.940000 40.189000 0
M  V30 95 C 19.853000 38.004000 38.627000 0 CFG=1
M  V30 96 C 18.988000 38.904000 37.709000 0
M  V30 97 O 20.425000 37.025000 37.781000 0
M  V30 98 N 19.558000 39.206000 41.479000 0
M  V30 99 C 19.176000 39.914000 42.710000 0 CFG=2
M  V30 100 C 20.255000 40.720000 43.432000 0
M  V30 101 O 19.981000 41.765000 44.080000 0
M  V30 102 C 18.458000 38.935000 43.667000 0
M  V30 103 C 17.159000 38.400000 43.073000 0
M  V30 104 C 16.133000 39.387000 42.459000 0
M  V30 105 N 15.402000 39.169000 41.378000 0
M  V30 106 O 15.915000 40.476000 42.951000 0
M  V30 107 N 21.502000 40.173000 43.565000 0
M  V30 108 C 22.597000 40.796000 44.320000 0 CFG=2
M  V30 109 C 23.079000 42.094000 43.573000 0
M  V30 110 O 23.394000 43.012000 44.271000 0
M  V30 111 C 23.746000 39.769000 44.456000 0
M  V30 112 N 23.082000 42.119000 42.245000 0
M  V30 113 C 23.430000 43.303000 41.384000 0 CFG=2
M  V30 114 C 22.294000 44.356000 41.522000 0
M  V30 115 O 22.553000 45.525000 41.399000 0
M  V30 116 C 23.663000 42.826000 39.920000 0
M  V30 117 C 24.956000 41.967000 39.925000 0
M  V30 118 C 26.312000 42.654000 39.727000 0
M  V30 119 N 27.240000 42.526000 40.640000 0
M  V30 120 O 26.486000 43.333000 38.752000 0
M  V30 121 N 21.000000 43.982000 41.818000 0
M  V30 122 C 20.058000 45.056000 42.260000 0 CFG=2
M  V30 123 C 20.248000 45.610000 43.705000 0
M  V30 124 O 20.168000 46.820000 43.882000 0
M  V30 125 C 18.574000 44.623000 42.126000 0
M  V30 126 C 18.085000 44.173000 40.728000 0
M  V30 127 C 18.266000 44.988000 39.576000 0
M  V30 128 C 17.514000 42.894000 40.498000 0
M  V30 129 C 17.836000 44.525000 38.342000 0
M  V30 130 C 17.177000 42.345000 39.248000 0
M  V30 131 C 17.396000 43.203000 38.174000 0
M  V30 132 N 20.550000 44.672000 44.632000 0
M  V30 133 C 22.063000 45.980000 46.080000 0
M  V30 134 O 22.015000 46.971000 46.782000 0
M  V30 135 C 20.908000 43.949000 46.987000 0
M  V30 136 C 19.568000 43.183000 47.087000 0
M  V30 137 C 21.497000 44.249000 48.394000 0
M  V30 138 C 19.835000 41.702000 47.342000 0
M  V30 139 N 23.083000 45.601000 45.390000 0
M  V30 140 C 24.108000 47.790000 44.781000 0
M  V30 141 O 24.773000 48.664000 45.254000 0
M  V30 142 C 25.355000 45.546000 44.406000 0
M  V30 143 C 26.603000 46.269000 43.932000 0
M  V30 144 S 27.395000 45.568000 42.398000 0
M  V30 145 C 26.348000 46.291000 41.038000 0
M  V30 146 N 23.245000 48.008000 43.798000 0
M  V30 147 C 21.995000 50.118000 44.215000 0
M  V30 148 O 22.290000 51.201000 44.616000 0
M  V30 149 C 22.450000 49.238000 41.901000 0
M  V30 150 C 22.239000 50.533000 41.070000 0
M  V30 151 C 20.978000 51.299000 41.543000 0
M  V30 152 O 19.857000 50.765000 41.658000 0
M  V30 153 O 21.091000 52.559000 41.596000 0 CHG=-1
M  V30 154 N 20.923000 49.460000 44.697000 0
M  V30 155 C 20.318000 50.774000 46.870000 0
M  V30 156 O 19.782000 51.751000 47.324000 0
M  V30 157 C 18.853000 48.897000 45.876000 0
M  V30 158 C 17.563000 49.455000 46.464000 0
M  V30 159 C 16.780000 50.200000 45.352000 0
M  V30 160 C 15.617000 50.590000 46.242000 0
M  V30 161 N 14.553000 51.347000 45.521000 0 CHG=1
M  V30 162 N 21.367000 50.209000 47.418000 0
M  V30 163 C 23.403000 51.209000 48.505000 0
M  V30 164 O 24.096000 51.687000 49.413000 0
M  V30 165 C 21.863000 49.696000 49.788000 0
M  V30 166 C 20.436000 49.150000 50.058000 0
M  V30 167 C 19.450000 50.014000 50.547000 0
M  V30 168 C 20.083000 48.006000 49.355000 0
M  V30 169 C 18.085000 49.558000 50.583000 0
M  V30 170 C 18.769000 47.569000 49.277000 0
M  V30 171 C 17.754000 48.416000 49.830000 0
M  V30 172 O 16.432000 48.099000 49.614000 0
M  V30 173 N 23.851000 51.134000 47.284000 0
M  V30 174 C 26.387000 50.770000 47.377000 0
M  V30 175 O 27.532000 51.008000 46.885000 0
M  V30 176 N 26.140000 49.767000 48.256000 0
M  V30 177 C 27.636000 47.829000 47.731000 0
M  V30 178 O 26.882000 47.460000 46.880000 0
M  V30 179 C 26.547000 48.173000 50.123000 0
M  V30 180 C 25.361000 47.244000 49.780000 0
M  V30 181 C 26.216000 49.302000 51.148000 0
M  V30 182 C 24.591000 46.839000 51.111000 0
M  V30 183 N 28.983000 47.564000 47.627000 0
M  V30 184 C 29.126000 45.064000 46.829000 0
M  V30 185 O 28.637000 44.664000 47.882000 0
M  V30 186 C 31.095000 46.686000 46.857000 0
M  V30 187 C 31.171000 46.968000 48.317000 0
M  V30 188 C 29.985000 47.981000 48.570000 0
M  V30 189 N 29.276000 44.232000 45.792000 0
M  V30 190 C 30.391000 42.174000 46.008000 0
M  V30 191 O 31.102000 41.897000 45.040000 0
M  V30 192 C 28.123000 42.275000 44.867000 0
M  V30 193 C 27.980000 40.741000 44.821000 0
M  V30 194 C 27.198000 40.205000 43.688000 0
M  V30 195 N 27.377000 38.966000 43.249000 0
M  V30 196 O 26.544000 40.915000 42.930000 0
M  V30 197 N 30.766000 41.893000 47.287000 0
M  V30 198 C 32.107000 41.303000 47.675000 0 CFG=2
M  V30 199 C 32.169000 39.803000 47.324000 0
M  V30 200 O 31.806000 39.030000 48.195000 0
M  V30 201 C 32.539000 41.655000 49.118000 0 CFG=2
M  V30 202 C 32.555000 43.153000 49.435000 0
M  V30 203 C 33.877000 41.038000 49.593000 0
M  V30 204 C 33.667000 43.981000 48.901000 0
M  V30 205 N 32.528000 39.503000 46.129000 0
M  V30 206 C 32.706000 38.105000 45.619000 0 CFG=2
M  V30 207 C 34.026000 37.449000 45.937000 0
M  V30 208 O 34.970000 38.155000 45.984000 0
M  V30 209 C 32.401000 38.014000 44.136000 0
M  V30 210 O 31.167000 38.368000 43.766000 0
M  V30 211 N 34.130000 36.159000 46.245000 0
M  V30 212 C 35.391000 35.623000 46.796000 0 CFG=2
M  V30 213 C 36.654000 35.669000 45.941000 0
M  V30 214 O 37.727000 35.633000 46.506000 0
M  V30 215 C 35.236000 34.223000 47.111000 0 CFG=1
M  V30 216 C 34.289000 33.950000 48.252000 0
M  V30 217 O 34.778000 33.417000 46.076000 0
M  V30 218 N 36.625000 35.813000 44.610000 0
M  V30 219 C 37.713000 36.290000 43.794000 0
M  V30 220 C 37.882000 37.850000 43.976000 0
M  V30 221 O 38.910000 38.354000 44.275000 0
M  V30 222 N 36.842000 38.659000 43.753000 0
M  V30 223 C 37.451000 40.823000 45.070000 0
M  V30 224 O 38.311000 41.700000 45.044000 0
M  V30 225 C 35.420000 40.730000 43.373000 0
M  V30 226 C 35.051000 40.514000 41.884000 0
M  V30 227 O 35.808000 39.964000 41.021000 0
M  V30 228 O 33.945000 40.963000 41.567000 0 CHG=-1
M  V30 229 N 37.251000 40.077000 46.209000 0
M  V30 230 C 39.458000 40.114000 47.534000 0
M  V30 231 O 40.181000 40.893000 48.018000 0
M  V30 232 C 37.280000 39.238000 48.510000 0
M  V30 233 C 38.027000 39.219000 49.923000 0
M  V30 234 S 37.046000 38.423000 51.268000 0
M  V30 235 C 37.300000 36.689000 50.639000 0
M  V30 236 N 39.940000 39.025000 46.901000 0
M  V30 237 C 41.936000 39.869000 45.885000 0
M  V30 238 O 42.971000 40.437000 46.189000 0
M  V30 239 C 41.596000 37.361000 46.329000 0
M  V30 240 C 43.074000 36.928000 45.798000 0
M  V30 241 C 44.266000 37.243000 46.698000 0
M  V30 242 C 43.070000 35.397000 45.710000 0
M  V30 243 N 41.270000 40.115000 44.799000 0
M  V30 244 C 41.872000 42.444000 44.408000 0
M  V30 245 O 42.974000 42.955000 44.218000 0
M  V30 246 C 40.645000 41.267000 42.567000 0
M  V30 247 C 40.797000 39.997000 41.623000 0
M  V30 248 C 39.908000 40.195000 40.377000 0
M  V30 249 N 38.699000 39.422000 40.590000 0
M  V30 250 C 38.547000 38.150000 40.301000 0
M  V30 251 N 39.432000 37.272000 39.901000 0 CHG=1
M  V30 252 N 37.326000 37.659000 40.513000 0
M  V30 253 N 40.896000 42.988000 45.159000 0
M  V30 254 C 42.141000 44.363000 46.827000 0
M  V30 255 O 42.762000 45.414000 46.952000 0
M  V30 256 C 39.731000 44.563000 46.409000 0
M  V30 257 N 42.548000 43.194000 47.387000 0
M  V30 258 C 44.965000 43.320000 47.732000 0
M  V30 259 O 45.732000 44.199000 48.102000 0
M  V30 260 C 43.491000 41.923000 49.245000 0
M  V30 261 N 45.159000 42.452000 46.650000 0
M  V30 262 C 46.558000 43.758000 45.057000 0
M  V30 263 O 47.689000 44.291000 44.910000 0
M  V30 264 C 46.228000 41.250000 44.850000 0
M  V30 265 C 47.257000 41.375000 43.673000 0
M  V30 266 C 46.442000 39.857000 45.375000 0
M  V30 267 N 45.444000 44.395000 44.606000 0
M  V30 268 C 46.077000 46.746000 44.820000 0
M  V30 269 O 46.933000 47.559000 44.406000 0
M  V30 270 C 44.008000 46.009000 43.420000 0
M  V30 271 C 43.751000 45.229000 42.123000 0
M  V30 272 C 42.306000 45.507000 41.601000 0
M  V30 273 C 41.988000 44.958000 40.267000 0
M  V30 274 N 40.672000 45.471000 39.829000 0 CHG=1
M  V30 275 N 45.737000 46.691000 46.097000 0
M  V30 276 C 47.702000 47.360000 47.547000 0
M  V30 277 O 48.170000 47.909000 48.547000 0
M  V30 278 C 45.316000 47.740000 48.292000 0
M  V30 279 O 43.982000 47.982000 47.831000 0
M  V30 280 N 48.369000 46.430000 46.868000 0
M  V30 281 C 49.769000 45.183000 48.513000 0
M  V30 282 O 50.794000 45.223000 49.209000 0
M  V30 283 N 48.712000 44.493000 48.905000 0
M  V30 284 C 49.571000 42.496000 49.982000 0
M  V30 285 O 49.274000 41.618000 49.175000 0
M  V30 286 C 47.312000 43.239000 50.593000 0
M  V30 287 O 47.283000 42.496000 51.851000 0
M  V30 288 N 50.643000 42.364000 50.796000 0
M  V30 289 C 50.762000 40.042000 51.516000 0
M  V30 290 O 51.083000 38.928000 51.097000 0
M  V30 291 C 52.740000 41.478000 51.802000 0
M  V30 292 C 53.718000 42.517000 51.239000 0
M  V30 293 C 54.591000 41.964000 50.104000 0
M  V30 294 O 54.895000 40.748000 50.058000 0
M  V30 295 O 54.936000 42.712000 49.150000 0 CHG=-1
M  V30 296 N 49.700000 40.176000 52.331000 0
M  V30 297 C 48.015000 38.639000 51.396000 0
M  V30 298 O 47.804000 37.454000 51.208000 0
M  V30 299 C 47.874000 39.571000 53.813000 0
M  V30 300 C 46.867000 38.528000 54.279000 0
M  V30 301 C 47.459000 37.240000 54.836000 0
M  V30 302 C 45.952000 39.093000 55.419000 0
M  V30 303 N 47.723000 39.597000 50.533000 0
M  V30 304 C 48.105000 38.514000 48.347000 0
M  V30 305 O 47.703000 37.503000 47.811000 0
M  V30 306 N 49.406000 38.830000 48.311000 0
M  V30 307 C 50.353000 36.599000 48.246000 0
M  V30 308 O 50.167000 35.679000 47.476000 0
M  V30 309 C 51.771000 38.747000 47.703000 0
M  V30 310 C 51.861000 39.893000 46.665000 0
M  V30 311 C 53.062000 40.785000 46.959000 0
M  V30 312 C 53.267000 41.940000 45.891000 0
M  V30 313 N 54.399000 42.754000 46.326000 0 CHG=1
M  V30 314 N 50.360000 36.466000 49.588000 0
M  V30 315 C 50.347000 35.161000 50.307000 0 CFG=2
M  V30 316 C 49.213000 34.216000 49.916000 0
M  V30 317 O 49.413000 33.001000 49.821000 0
M  V30 318 C 50.455000 35.432000 51.809000 0
M  V30 319 C 50.486000 34.210000 52.732000 0
M  V30 320 C 51.800000 33.454000 52.867000 0
M  V30 321 N 52.055000 32.820000 54.023000 0
M  V30 322 O 52.648000 33.385000 51.934000 0
M  V30 323 N 48.037000 34.781000 49.576000 0
M  V30 324 C 46.789000 34.046000 49.301000 0 CFG=2
M  V30 325 C 46.732000 33.527000 47.933000 0
M  V30 326 O 46.183000 32.429000 47.675000 0
M  V30 327 C 45.661000 35.066000 49.637000 0
M  V30 328 N 47.223000 34.324000 47.016000 0
M  V30 329 C 47.387000 34.048000 45.618000 0 CFG=2
M  V30 330 C 48.188000 32.780000 45.402000 0
M  V30 331 O 47.958000 32.109000 44.401000 0
M  V30 332 C 48.035000 35.138000 44.797000 0
M  V30 333 C 47.797000 35.099000 43.330000 0
M  V30 334 C 48.493000 36.278000 42.635000 0
M  V30 335 C 48.293000 36.184000 41.127000 0
M  V30 336 N 49.111000 35.159000 40.471000 0 CHG=1
M  V30 337 N 49.117000 32.306000 46.274000 0
M  V30 338 C 49.777000 31.057000 46.005000 0 CFG=2
M  V30 339 C 48.836000 29.843000 45.824000 0
M  V30 340 O 49.067000 28.898000 45.055000 0
M  V30 341 C 50.797000 30.829000 47.129000 0
M  V30 342 C 51.510000 29.405000 46.934000 0
M  V30 343 O 52.033000 29.214000 45.823000 0
M  V30 344 O 51.699000 28.604000 47.907000 0 CHG=-1
M  V30 345 N 47.772000 29.724000 46.614000 0
M  V30 346 C 46.815000 28.611000 46.641000 0 CFG=2
M  V30 347 C 45.833000 28.722000 45.358000 0
M  V30 348 O 45.561000 27.708000 44.770000 0
M  V30 349 C 46.167000 28.683000 48.035000 0 CFG=2
M  V30 350 C 47.100000 28.337000 49.230000 0
M  V30 351 C 45.034000 27.644000 48.039000 0
M  V30 352 C 47.691000 29.540000 49.946000 0
M  V30 353 N 45.314000 29.938000 45.086000 0
M  V30 354 C 44.659000 30.355000 43.798000 0 CFG=2
M  V30 355 C 45.575000 29.933000 42.622000 0
M  V30 356 O 45.052000 29.380000 41.631000 0
M  V30 357 C 44.234000 31.856000 43.731000 0
M  V30 358 C 43.676000 32.286000 42.353000 0
M  V30 359 S 42.995000 33.994000 42.271000 0
M  V30 360 C 42.288000 34.160000 40.537000 0
M  V30 361 N 46.859000 30.253000 42.577000 0
M  V30 362 C 47.647000 29.815000 41.469000 0 CFG=2
M  V30 363 C 47.947000 28.278000 41.343000 0
M  V30 364 O 48.478000 27.784000 40.338000 0
M  V30 365 C 48.983000 30.555000 41.543000 0
M  V30 366 C 48.966000 32.018000 41.401000 0
M  V30 367 O 49.878000 32.674000 41.918000 0
M  V30 368 O 48.199000 32.587000 40.583000 0 CHG=-1
M  V30 369 N 47.680000 27.526000 42.408000 0
M  V30 370 C 47.557000 26.077000 42.481000 0 CFG=2
M  V30 371 C 46.125000 25.524000 42.089000 0
M  V30 372 O 46.004000 24.286000 42.202000 0
M  V30 373 C 47.967000 25.680000 43.853000 0
M  V30 374 N 45.124000 26.331000 41.755000 0
M  V30 375 C 43.843000 25.803000 41.303000 0
M  V30 376 C 42.981000 25.498000 42.451000 0
M  V30 377 O 42.218000 24.522000 42.373000 0
M  V30 378 N 43.149000 26.148000 43.589000 0
M  V30 379 C 42.462000 25.691000 44.862000 0 CFG=2
M  V30 380 C 41.731000 26.889000 45.616000 0
M  V30 381 O 41.991000 28.069000 45.278000 0
M  V30 382 C 43.540000 25.012000 45.804000 0
M  V30 383 C 43.745000 23.544000 45.391000 0
M  V30 384 C 45.105000 23.043000 45.862000 0
M  V30 385 C 45.391000 23.094000 47.345000 0
M  V30 386 N 46.701000 22.388000 47.576000 0 CHG=1
M  V30 387 N 40.933000 26.601000 46.620000 0
M  V30 388 C 40.320000 27.685000 47.505000 0 CFG=2
M  V30 389 C 41.369000 28.225000 48.493000 0
M  V30 390 O 42.178000 27.452000 49.022000 0
M  V30 391 C 39.275000 27.052000 48.308000 0
M  V30 392 C 38.222000 26.200000 47.560000 0
M  V30 393 C 37.240000 25.602000 48.596000 0
M  V30 394 C 37.443000 27.049000 46.432000 0
M  V30 395 N 41.257000 29.495000 48.872000 0
M  V30 396 C 42.153000 30.067000 49.883000 0 CFG=2
M  V30 397 C 41.861000 29.344000 51.224000 0
M  V30 398 O 40.754000 29.187000 51.740000 0
M  V30 399 C 42.016000 31.640000 49.976000 0
M  V30 400 C 42.857000 32.152000 51.147000 0
M  V30 401 C 42.499000 32.205000 48.649000 0
M  V30 402 N 42.858000 28.770000 51.843000 0
M  V30 403 C 42.718000 28.028000 53.148000 0 CFG=2
M  V30 404 C 41.955000 28.832000 54.236000 0
M  V30 405 O 41.999000 30.083000 54.248000 0
M  V30 406 C 44.082000 27.360000 53.657000 0 CFG=1
M  V30 407 C 44.829000 26.770000 52.497000 0
M  V30 408 O 44.914000 28.452000 54.094000 0
M  V30 409 N 41.289000 28.092000 55.123000 0
M  V30 410 C 40.473000 28.704000 56.168000 0 CFG=2
M  V30 411 C 41.141000 29.726000 57.091000 0
M  V30 412 O 40.477000 30.592000 57.627000 0
M  V30 413 C 39.995000 27.568000 57.196000 0
M  V30 414 C 39.023000 26.470000 56.684000 0
M  V30 415 O 39.023000 25.372000 57.209000 0
M  V30 416 O 38.449000 26.821000 55.713000 0 CHG=-1
M  V30 417 N 42.469000 29.603000 57.379000 0
M  V30 418 C 43.227000 30.590000 58.162000 0 CFG=2
M  V30 419 C 43.577000 31.848000 57.439000 0
M  V30 420 O 43.849000 32.864000 58.102000 0
M  V30 421 C 44.346000 29.895000 58.875000 0
M  V30 422 C 45.707000 29.711000 58.207000 0
M  V30 423 C 45.755000 28.555000 57.150000 0
M  V30 424 O 46.892000 28.122000 56.773000 0
M  V30 425 O 44.704000 27.924000 56.720000 0 CHG=-1
M  V30 426 N 43.737000 31.744000 56.098000 0
M  V30 427 C 44.140000 32.909000 55.276000 0 CFG=2
M  V30 428 C 42.943000 33.631000 54.814000 0
M  V30 429 O 42.912000 34.867000 54.756000 0
M  V30 430 C 44.949000 32.456000 54.049000 0
M  V30 431 C 46.463000 32.115000 54.280000 0
M  V30 432 C 47.140000 31.618000 53.019000 0
M  V30 433 C 47.262000 33.357000 54.672000 0
M  V30 434 N 41.808000 32.916000 54.559000 0
M  V30 435 C 40.556000 33.595000 54.088000 0 CFG=2
M  V30 436 C 40.032000 34.514000 55.209000 0
M  V30 437 O 39.568000 35.633000 54.926000 0
M  V30 438 C 39.364000 32.705000 53.610000 0
M  V30 439 C 38.888000 31.855000 54.780000 0
M  V30 440 C 38.116000 33.432000 53.032000 0
M  V30 441 N 40.075000 34.042000 56.441000 0
M  V30 442 C 40.486000 36.188000 57.632000 0
M  V30 443 O 40.026000 37.271000 58.028000 0
M  V30 444 C 39.306000 34.131000 58.864000 0
M  V30 445 C 38.085000 33.193000 58.856000 0
M  V30 446 C 39.219000 35.070000 60.097000 0
M  V30 447 C 36.717000 33.785000 58.444000 0
M  V30 448 N 41.814000 36.059000 57.395000 0
M  V30 449 C 42.442000 38.155000 56.334000 0
M  V30 450 O 42.310000 39.391000 56.523000 0
M  V30 451 C 44.158000 36.914000 57.721000 0
M  V30 452 N 42.321000 37.626000 55.128000 0
M  V30 453 C 40.502000 38.865000 53.961000 0
M  V30 454 O 40.304000 39.999000 53.488000 0
M  V30 455 C 42.185000 37.188000 52.718000 0
M  V30 456 C 41.721000 37.829000 51.392000 0
M  V30 457 C 42.489000 39.115000 51.000000 0
M  V30 458 C 41.754000 36.834000 50.229000 0
M  V30 459 N 39.553000 38.288000 54.756000 0
M  V30 460 C 38.594000 40.222000 56.132000 0
M  V30 461 O 38.072000 41.272000 55.843000 0
M  V30 462 C 37.320000 38.050000 55.851000 0
M  V30 463 C 36.151000 38.655000 56.511000 0
M  V30 464 C 36.721000 37.310000 54.699000 0
M  V30 465 N 39.382000 40.049000 57.148000 0
M  V30 466 C 40.438000 42.334000 57.247000 0
M  V30 467 O 40.372000 43.521000 57.553000 0
M  V30 468 C 40.615000 40.673000 59.212000 0
M  V30 469 C 39.676000 39.913000 60.179000 0
M  V30 470 C 40.579000 39.680000 61.411000 0
M  V30 471 C 41.164000 38.272000 61.307000 0
M  V30 472 N 41.971000 38.069000 62.485000 0 CHG=1
M  V30 473 N 41.164000 41.990000 56.200000 0
M  V30 474 C 40.797000 43.775000 54.435000 0
M  V30 475 O 40.719000 44.999000 54.552000 0
M  V30 476 C 42.810000 42.344000 54.350000 0
M  V30 477 C 43.498000 43.320000 53.405000 0
M  V30 478 C 44.345000 44.421000 54.076000 0
M  V30 479 O 45.171000 44.223000 55.039000 0
M  V30 480 O 44.221000 45.554000 53.606000 0 CHG=-1
M  V30 481 N 39.911000 43.011000 53.786000 0
M  V30 482 C 37.824000 44.261000 53.445000 0
M  V30 483 O 37.362000 45.297000 52.944000 0
M  V30 484 C 38.357000 42.435000 51.836000 0
M  V30 485 C 37.390000 42.844000 50.695000 0
M  V30 486 C 38.098000 43.792000 49.712000 0
M  V30 487 N 37.095000 44.574000 48.955000 0
M  V30 488 C 36.632000 45.783000 49.115000 0
M  V30 489 N 36.873000 46.499000 50.120000 0 CHG=1
M  V30 490 N 35.965000 46.324000 48.153000 0
M  V30 491 N 37.261000 43.706000 54.545000 0
M  V30 492 C 36.555000 45.603000 56.054000 0
M  V30 493 O 35.702000 46.477000 56.171000 0
M  V30 494 C 35.380000 43.305000 56.141000 0
M  V30 495 C 34.718000 42.112000 55.387000 0
M  V30 496 C 34.336000 43.917000 57.077000 0
M  V30 497 C 34.384000 42.342000 53.910000 0
M  V30 498 N 37.789000 45.794000 56.439000 0
M  V30 499 C 38.616000 48.162000 55.976000 0
M  V30 500 O 38.918000 49.238000 56.444000 0
M  V30 501 C 39.708000 46.618000 57.705000 0
M  V30 502 N 38.399000 48.015000 54.707000 0
M  V30 503 C 37.473000 50.202000 53.730000 0
M  V30 504 O 36.372000 49.936000 54.230000 0
M  V30 505 C 38.608000 48.532000 52.318000 0
M  V30 506 C 39.882000 47.754000 52.103000 0
M  V30 507 C 40.256000 47.316000 50.731000 0
M  V30 508 N 39.860000 48.050000 49.736000 0
M  V30 509 O 40.961000 46.303000 50.521000 0
M  V30 510 N 37.741000 51.388000 53.240000 0
M  V30 511 C 35.469000 52.596000 52.723000 0
M  V30 512 O 34.653000 53.514000 52.971000 0
M  V30 513 C 37.664000 53.888000 53.068000 0
M  V30 514 C 37.906000 54.096000 51.544000 0
M  V30 515 C 38.660000 55.316000 51.121000 0
M  V30 516 O 38.797000 55.477000 49.889000 0
M  V30 517 O 39.005000 56.184000 51.955000 0 CHG=-1
M  V30 518 N 35.206000 51.618000 51.860000 0
M  V30 519 C 33.129000 50.336000 52.251000 0
M  V30 520 O 32.118000 50.648000 52.822000 0
M  V30 521 C 33.893000 50.735000 49.921000 0
M  V30 522 C 34.930000 49.577000 49.689000 0
M  V30 523 O 35.808000 49.274000 50.537000 0
M  V30 524 O 34.767000 48.854000 48.657000 0 CHG=-1
M  V30 525 N 33.792000 49.189000 52.563000 0
M  V30 526 C 32.952000 48.680000 54.888000 0
M  V30 527 O 31.900000 48.376000 55.331000 0
M  V30 528 C 34.408000 47.137000 53.572000 0
M  V30 529 S 34.287000 46.234000 51.949000 0
M  V30 530 N 33.764000 49.566000 55.509000 0
M  V30 531 C 32.051000 51.264000 56.497000 0
M  V30 532 O 31.482000 51.805000 57.491000 0
M  V30 533 C 34.506000 51.058000 57.386000 0
M  V30 534 C 35.587000 50.169000 57.898000 0
M  V30 535 C 36.798000 51.052000 58.205000 0
M  V30 536 N 37.837000 50.302000 59.001000 0
M  V30 537 C 39.132000 50.556000 59.049000 0
M  V30 538 N 39.647000 51.595000 58.573000 0 CHG=1
M  V30 539 N 39.913000 49.895000 59.737000 0
M  V30 540 N 31.523000 51.497000 55.306000 0
M  V30 541 C 29.109000 50.887000 54.678000 0
M  V30 542 O 27.931000 51.192000 54.713000 0
M  V30 543 C 30.155000 53.124000 53.981000 0
M  V30 544 C 30.701000 54.495000 54.407000 0
M  V30 545 N 29.930000 55.569000 54.150000 0
M  V30 546 O 31.636000 54.655000 55.148000 0
M  V30 547 N 29.546000 49.704000 54.250000 0
M  V30 548 C 28.988000 47.628000 52.931000 0
M  V30 549 O 29.666000 47.998000 51.990000 0
M  V30 550 N 28.465000 46.454000 52.868000 0
M  V30 551 C 27.742000 44.355000 51.694000 0
M  V30 552 O 26.915000 44.154000 52.668000 0
M  V30 553 C 30.152000 44.970000 51.866000 0
M  V30 554 C 30.499000 44.183000 53.065000 0
M  V30 555 C 30.983000 44.914000 54.143000 0
M  V30 556 C 30.390000 42.771000 53.151000 0
M  V30 557 C 31.332000 44.276000 55.373000 0
M  V30 558 C 30.640000 42.222000 54.397000 0
M  V30 559 C 31.043000 42.931000 55.524000 0
M  V30 560 N 27.747000 43.606000 50.622000 0
M  V30 561 C 27.951000 41.267000 50.175000 0
M  V30 562 O 28.826000 41.287000 49.264000 0
M  V30 563 C 25.838000 42.670000 49.305000 0
M  V30 564 C 25.228000 41.318000 48.854000 0
M  V30 565 C 24.313000 40.631000 49.777000 0
M  V30 566 C 24.425000 41.506000 47.536000 0
M  V30 567 N 27.785000 40.167000 50.946000 0
M  V30 568 C 28.815000 39.058000 50.963000 0 CFG=2
M  V30 569 C 28.396000 37.778000 50.232000 0
M  V30 570 O 27.538000 36.955000 50.642000 0
M  V30 571 C 29.155000 38.618000 52.419000 0
M  V30 572 C 30.377000 37.741000 52.554000 0
M  V30 573 C 31.717000 38.213000 52.028000 0
M  V30 574 C 30.624000 37.330000 54.062000 0
M  V30 575 N 29.039000 37.461000 49.069000 0
M  V30 576 C 28.671000 36.529000 48.018000 0 CFG=2
M  V30 577 C 29.570000 35.271000 47.888000 0
M  V30 578 O 30.739000 35.381000 47.400000 0
M  V30 579 C 28.716000 37.340000 46.755000 0
M  V30 580 C 28.669000 36.493000 45.440000 0
M  V30 581 O 28.183000 35.290000 45.399000 0
M  V30 582 O 29.139000 36.978000 44.445000 0 CHG=-1
M  V30 583 N 29.145000 34.072000 48.278000 0
M  V30 584 C 29.818000 32.720000 48.085000 0
M  V30 585 C 30.722000 32.232000 49.248000 0
M  V30 586 O 31.260000 31.088000 49.218000 0
M  V30 587 N 30.585000 32.960000 50.328000 0
M  V30 588 C 31.342000 32.724000 51.560000 0 CFG=2
M  V30 589 C 30.625000 33.157000 52.811000 0
M  V30 590 O 30.001000 34.243000 52.824000 0
M  V30 591 C 32.626000 33.551000 51.531000 0
M  V30 592 C 33.553000 33.279000 52.682000 0
M  V30 593 C 33.355000 34.121000 53.777000 0
M  V30 594 C 34.411000 32.171000 52.807000 0
M  V30 595 C 34.008000 33.865000 55.012000 0
M  V30 596 C 35.145000 32.021000 54.002000 0
M  V30 597 C 34.936000 32.817000 55.120000 0
M  V30 598 N 30.614000 32.409000 53.934000 0
M  V30 599 C 31.326000 31.137000 54.316000 0 CFG=2
M  V30 600 C 30.873000 29.904000 53.608000 0
M  V30 601 O 29.852000 29.855000 52.933000 0
M  V30 602 C 31.219000 30.916000 55.838000 0
M  V30 603 C 30.586000 32.279000 56.287000 0
M  V30 604 C 29.771000 32.742000 55.141000 0
M  V30 605 N 31.658000 28.849000 53.791000 0
M  V30 606 C 31.519000 27.470000 53.257000 0 CFG=2
M  V30 607 C 31.033000 26.573000 54.461000 0
M  V30 608 O 29.957000 25.921000 54.407000 0
M  V30 609 C 32.831000 27.031000 52.570000 0
M  V30 610 C 32.442000 25.794000 51.770000 0
M  V30 611 C 33.529000 25.012000 51.046000 0
M  V30 612 N 34.503000 24.563000 52.006000 0
M  V30 613 C 35.750000 24.943000 52.316000 0
M  V30 614 N 36.221000 25.949000 51.763000 0 CHG=1
M  V30 615 N 36.447000 24.279000 53.165000 0
M  V30 616 N 31.847000 26.462000 55.532000 0
M  V30 617 C 31.510000 25.536000 56.659000 0 CFG=2
M  V30 618 C 30.994000 26.254000 57.855000 0
M  V30 619 O 30.892000 27.490000 57.765000 0
M  V30 620 C 32.717000 24.603000 57.015000 0 CFG=1
M  V30 621 C 33.256000 23.897000 55.746000 0
M  V30 622 O 33.624000 25.406000 57.538000 0
M  V30 623 N 30.460000 25.551000 58.918000 0
M  V30 624 C 30.258000 26.311000 60.256000 0 CFG=2
M  V30 625 C 31.561000 26.638000 60.983000 0
M  V30 626 O 31.686000 27.730000 61.556000 0
M  V30 627 C 29.124000 25.610000 61.064000 0 CFG=2
M  V30 628 C 27.816000 25.507000 60.280000 0
M  V30 629 C 28.944000 26.140000 62.501000 0
M  V30 630 C 26.875000 24.478000 60.977000 0
M  V30 631 N 32.631000 25.853000 61.066000 0
M  V30 632 C 33.910000 26.234000 61.547000 0 CFG=2
M  V30 633 C 34.559000 27.398000 60.926000 0
M  V30 634 O 35.252000 28.154000 61.624000 0
M  V30 635 C 34.737000 24.904000 61.501000 0
M  V30 636 C 33.731000 23.800000 61.605000 0
M  V30 637 C 32.640000 24.451000 60.748000 0
M  V30 638 N 34.486000 27.560000 59.674000 0
M  V30 639 C 34.845000 28.894000 59.112000 0 CFG=2
M  V30 640 C 33.954000 30.055000 59.606000 0
M  V30 641 O 34.435000 31.129000 59.910000 0
M  V30 642 C 34.526000 28.920000 57.603000 0
M  V30 643 C 35.622000 28.169000 56.761000 0
M  V30 644 C 35.321000 28.261000 55.265000 0
M  V30 645 N 36.214000 27.787000 54.413000 0
M  V30 646 O 34.268000 28.721000 54.835000 0
M  V30 647 N 32.622000 29.976000 59.474000 0
M  V30 648 C 31.705000 31.077000 59.758000 0 CFG=2
M  V30 649 C 31.894000 31.412000 61.264000 0
M  V30 650 O 32.075000 32.550000 61.625000 0
M  V30 651 C 30.240000 30.673000 59.544000 0
M  V30 652 N 31.910000 30.452000 62.167000 0
M  V30 653 C 32.213000 30.737000 63.620000 0 CFG=2
M  V30 654 C 33.635000 31.404000 63.910000 0
M  V30 655 O 33.746000 32.218000 64.812000 0
M  V30 656 C 32.202000 29.418000 64.371000 0
M  V30 657 C 32.719000 29.580000 65.806000 0
M  V30 658 O 33.927000 29.316000 66.048000 0
M  V30 659 O 31.853000 30.005000 66.572000 0 CHG=-1
M  V30 660 N 34.601000 31.174000 63.019000 0
M  V30 661 C 35.863000 31.879000 62.976000 0 CFG=2
M  V30 662 C 35.819000 33.329000 62.375000 0
M  V30 663 O 36.851000 34.000000 62.671000 0
M  V30 664 C 37.010000 31.121000 62.270000 0
M  V30 665 N 34.754000 33.712000 61.614000 0
M  V30 666 C 33.809000 35.920000 62.198000 0
M  V30 667 O 34.029000 37.086000 62.328000 0
M  V30 668 C 33.717000 35.015000 59.800000 0
M  V30 669 C 33.808000 36.396000 59.051000 0
M  V30 670 S 32.995000 36.479000 57.432000 0
M  V30 671 C 31.221000 36.633000 57.843000 0
M  V30 672 N 33.030000 35.301000 63.060000 0
M  V30 673 C 32.305000 35.908000 64.203000 0 CFG=2
M  V30 674 C 33.276000 36.235000 65.307000 0
M  V30 675 O 33.202000 37.304000 65.899000 0
M  V30 676 C 31.196000 34.968000 64.681000 0
M  V30 677 C 30.369000 35.543000 65.778000 0
M  V30 678 C 29.330000 34.596000 66.346000 0
M  V30 679 C 28.729000 35.146000 67.670000 0
M  V30 680 N 27.595000 34.323000 68.067000 0 CHG=1
M  V30 681 N 34.191000 35.283000 65.512000 0
M  V30 682 C 36.136000 36.553000 66.161000 0
M  V30 683 O 36.435000 37.341000 67.041000 0
M  V30 684 C 35.878000 34.010000 66.552000 0
M  V30 685 C 37.223000 33.930000 67.334000 0
M  V30 686 C 37.258000 34.598000 68.713000 0
M  V30 687 O 36.232000 34.494000 69.414000 0
M  V30 688 O 38.303000 35.205000 69.044000 0 CHG=-1
M  V30 689 N 36.454000 36.778000 64.921000 0
M  V30 690 C 36.613000 39.324000 64.548000 0
M  V30 691 O 37.249000 40.297000 64.243000 0
M  V30 692 C 37.731000 37.538000 63.131000 0
M  V30 693 N 35.353000 39.424000 64.972000 0
M  V30 694 C 33.731000 41.074000 64.049000 0
M  V30 695 O 33.239000 42.255000 64.046000 0
M  V30 696 N 33.511000 40.213000 63.033000 0
M  V30 697 C 31.272000 40.100000 62.203000 0
M  V30 698 O 31.021000 38.964000 62.570000 0
M  V30 699 C 33.224000 39.960000 60.541000 0
M  V30 700 C 34.581000 40.565000 60.049000 0
M  V30 701 C 32.201000 39.849000 59.402000 0
M  V30 702 C 35.809000 40.005000 60.733000 0
M  V30 703 N 30.281000 40.912000 61.868000 0
M  V30 704 C 28.109000 41.530000 61.030000 0
M  V30 705 O 28.715000 42.341000 60.297000 0
M  V30 706 C 28.418000 41.247000 63.531000 0
M  V30 707 C 27.044000 40.716000 63.852000 0
M  V30 708 N 26.168000 41.571000 64.342000 0
M  V30 709 O 26.708000 39.505000 63.716000 0
M  V30 710 N 26.744000 41.198000 60.818000 0
M  V30 711 C 24.509000 42.068000 60.058000 0
M  V30 712 O 23.980000 41.366000 60.952000 0
M  V30 713 C 26.188000 40.788000 58.501000 0
M  V30 714 C 27.622000 40.716000 57.886000 0
M  V30 715 C 25.630000 39.332000 58.710000 0
M  V30 716 N 23.901000 43.088000 59.471000 0
M  V30 717 C 21.419000 42.560000 59.478000 0
M  V30 718 O 20.501000 42.421000 60.325000 0
M  V30 719 C 22.307000 44.952000 59.122000 0
M  V30 720 C 23.213000 46.034000 59.594000 0
M  V30 721 O 22.889000 46.781000 60.570000 0
M  V30 722 O 24.319000 46.184000 59.065000 0 CHG=-1
M  V30 723 N 21.622000 41.772000 58.403000 0
M  V30 724 C 21.364000 39.790000 57.140000 0
M  V30 725 O 22.480000 39.927000 56.584000 0
M  V30 726 C 19.926000 41.810000 56.611000 0
M  V30 727 C 18.978000 42.963000 57.001000 0
M  V30 728 C 17.618000 42.667000 57.172000 0
M  V30 729 C 19.477000 44.305000 57.025000 0
M  V30 730 C 16.680000 43.686000 57.438000 0
M  V30 731 C 18.540000 45.328000 57.197000 0
M  V30 732 C 17.145000 44.956000 57.370000 0
M  V30 733 O 16.290000 45.967000 57.678000 0
M  V30 734 N 20.751000 38.626000 57.183000 0
M  V30 735 C 21.165000 37.493000 56.389000 0 CFG=2
M  V30 736 C 19.914000 36.991000 55.663000 0
M  V30 737 O 18.937000 36.571000 56.221000 0
M  V30 738 C 21.825000 36.393000 57.210000 0
M  V30 739 C 22.293000 35.303000 56.293000 0
M  V30 740 C 23.025000 36.897000 58.048000 0
M  V30 741 N 20.000000 36.969000 54.284000 0
M  V30 742 C 19.073000 35.003000 53.192000 0
M  V30 743 O 20.172000 34.446000 52.867000 0
M  V30 744 C 19.071000 37.200000 52.083000 0
M  V30 745 C 18.818000 38.685000 52.130000 0
M  V30 746 C 19.187000 39.347000 50.810000 0
M  V30 747 C 17.465000 39.188000 52.654000 0
M  V30 748 N 17.972000 34.246000 53.142000 0
M  V30 749 C 16.976000 32.887000 51.283000 0
M  V30 750 O 15.758000 33.057000 51.376000 0
M  V30 751 C 17.407000 31.974000 53.575000 0
M  V30 752 C 17.624000 30.515000 53.076000 0
M  V30 753 C 16.504000 29.595000 53.604000 0
M  V30 754 O 15.447000 30.004000 54.087000 0
M  V30 755 O 16.724000 28.323000 53.448000 0 CHG=-1
M  V30 756 N 17.562000 32.519000 50.082000 0
M  V30 757 C 16.414000 30.619000 49.004000 0
M  V30 758 O 17.245000 29.723000 48.957000 0
M  V30 759 C 17.554000 32.421000 47.532000 0
M  V30 760 C 17.708000 33.913000 47.147000 0
M  V30 761 C 18.097000 34.897000 48.068000 0
M  V30 762 C 17.476000 34.288000 45.805000 0
M  V30 763 C 18.092000 36.258000 47.679000 0
M  V30 764 C 17.496000 35.661000 45.462000 0
M  V30 765 C 17.798000 36.651000 46.402000 0
M  V30 766 N 15.104000 30.309000 49.139000 0
M  V30 767 C 14.089000 28.637000 47.676000 0
M  V30 768 O 13.209000 29.467000 47.140000 0
M  V30 769 C 13.551000 28.641000 50.095000 0
M  V30 770 C 13.317000 27.235000 50.521000 0
M  V30 771 O 12.498000 27.060000 51.453000 0
M  V30 772 O 13.937000 26.251000 49.996000 0 CHG=-1
M  V30 773 N 14.481000 27.474000 47.154000 0
M  V30 774 C 13.778000 25.271000 46.291000 0
M  V30 775 O 14.851000 24.756000 46.621000 0
M  V30 776 C 14.369000 27.175000 44.646000 0
M  V30 777 C 13.839000 26.391000 43.443000 0
M  V30 778 C 14.149000 28.622000 44.327000 0
M  V30 779 N 12.577000 24.674000 45.995000 0
M  V30 780 C 13.204000 22.239000 45.537000 0
M  V30 781 O 13.376000 22.399000 44.334000 0
M  V30 782 C 10.779000 23.113000 46.309000 0
M  V30 783 C 10.340000 24.156000 45.380000 0
M  V30 784 C 11.406000 25.275000 45.408000 0
M  V30 785 N 13.644000 21.161000 46.135000 0
M  V30 786 C 13.962000 19.541000 44.194000 0
M  V30 787 O 14.661000 19.541000 43.177000 0
M  V30 788 C 14.744000 18.956000 46.490000 0
M  V30 789 C 15.335000 19.421000 47.841000 0
M  V30 790 O 15.816000 20.555000 47.924000 0
M  V30 791 O 15.261000 18.580000 48.787000 0 CHG=-1
M  V30 792 N 12.697000 19.138000 44.158000 0
M  V30 793 C 11.858000 19.631000 41.796000 0
M  V30 794 O 11.540000 19.218000 40.688000 0
M  V30 795 C 10.762000 17.767000 43.173000 0
M  V30 796 C 10.175000 16.828000 42.088000 0
M  V30 797 C 11.150000 15.820000 41.508000 0
M  V30 798 O 11.274000 15.632000 40.284000 0
M  V30 799 O 11.938000 15.185000 42.255000 0 CHG=-1
M  V30 800 N 11.933000 20.941000 41.945000 0
M  V30 801 C 13.629000 21.928000 40.427000 0
M  V30 802 O 14.001000 22.060000 39.277000 0
M  V30 803 C 11.541000 23.277000 41.177000 0
M  V30 804 C 10.065000 23.425000 41.426000 0
M  V30 805 C 9.625000 24.870000 41.540000 0
M  V30 806 C 9.088000 22.892000 40.397000 0
M  V30 807 N 14.586000 21.873000 41.379000 0
M  V30 808 C 16.552000 20.690000 40.225000 0
M  V30 809 O 17.239000 20.850000 39.176000 0
M  V30 810 C 16.821000 22.098000 42.271000 0
M  V30 811 C 16.589000 23.425000 42.990000 0
M  V30 812 C 18.404000 22.008000 41.995000 0
M  V30 813 C 16.849000 24.786000 42.368000 0
M  V30 814 N 16.174000 19.476000 40.718000 0
M  V30 815 C 15.924000 18.397000 38.566000 0
M  V30 816 O 16.639000 18.266000 37.553000 0
M  V30 817 C 16.009000 17.001000 40.752000 0
M  V30 818 C 16.322000 15.683000 40.058000 0
M  V30 819 C 16.683000 16.935000 42.173000 0
M  V30 820 N 21.759000 12.856000 44.449000 0
M  V30 821 C 22.845000 12.689000 45.433000 0 CFG=2
M  V30 822 C 23.808000 13.901000 45.484000 0
M  V30 823 O 24.166000 14.227000 46.586000 0
M  V30 824 C 23.560000 11.311000 45.168000 0
M  V30 825 C 24.518000 10.893000 46.272000 0
M  V30 826 C 25.265000 9.621000 45.824000 0
M  V30 827 C 26.318000 9.279000 46.884000 0
M  V30 828 N 27.129000 8.159000 46.578000 0 CHG=1
M  V30 829 N 24.068000 14.635000 44.429000 0
M  V30 830 C 24.841000 15.879000 44.362000 0 CFG=2
M  V30 831 C 24.068000 17.028000 45.013000 0
M  V30 832 O 24.729000 17.910000 45.568000 0
M  V30 833 C 25.267000 16.182000 42.912000 0
M  V30 834 C 26.246000 15.050000 42.510000 0
M  V30 835 C 26.359000 14.998000 40.937000 0
M  V30 836 N 27.058000 13.803000 40.497000 0
M  V30 837 C 27.814000 13.722000 39.439000 0
M  V30 838 N 28.397000 12.626000 39.143000 0 CHG=1
M  V30 839 N 28.071000 14.749000 38.651000 0
M  V30 840 N 22.766000 16.966000 44.978000 0
M  V30 841 C 21.891000 17.851000 45.686000 0 CFG=2
M  V30 842 C 21.991000 17.787000 47.246000 0
M  V30 843 O 22.196000 18.698000 47.994000 0
M  V30 844 C 20.491000 17.844000 45.140000 0
M  V30 845 C 19.557000 18.969000 45.586000 0
M  V30 846 C 20.101000 20.441000 45.259000 0
M  V30 847 C 18.207000 18.962000 44.840000 0
M  V30 848 N 21.934000 16.596000 47.822000 0
M  V30 849 C 21.991000 16.268000 49.269000 0 CFG=2
M  V30 850 C 23.419000 16.525000 49.805000 0
M  V30 851 O 23.592000 16.947000 50.931000 0
M  V30 852 C 21.605000 14.794000 49.527000 0
M  V30 853 C 22.000000 14.235000 50.935000 0
M  V30 854 C 20.052000 14.659000 49.342000 0
M  V30 855 N 24.450000 16.442000 48.944000 0
M  V30 856 C 25.795000 16.926000 49.226000 0 CFG=2
M  V30 857 C 25.901000 18.475000 49.281000 0
M  V30 858 O 26.515000 19.078000 50.155000 0
M  V30 859 C 26.751000 16.242000 48.226000 0
M  V30 860 C 28.216000 16.700000 48.223000 0
M  V30 861 C 28.876000 16.512000 49.573000 0
M  V30 862 O 28.269000 15.949000 50.519000 0
M  V30 863 O 30.022000 17.002000 49.757000 0 CHG=-1
M  V30 864 N 25.284000 19.157000 48.360000 0
M  V30 865 C 25.000000 20.539000 48.527000 0 CFG=2
M  V30 866 C 24.208000 20.971000 49.750000 0
M  V30 867 O 24.531000 21.921000 50.464000 0
M  V30 868 C 24.330000 21.123000 47.172000 0
M  V30 869 C 24.174000 22.664000 46.998000 0
M  V30 870 C 25.107000 23.435000 46.384000 0
M  V30 871 C 23.087000 23.203000 47.695000 0
M  V30 872 C 24.854000 24.832000 46.295000 0
M  V30 873 C 22.887000 24.556000 47.732000 0
M  V30 874 C 23.791000 25.380000 47.030000 0
M  V30 875 O 23.475000 26.707000 46.869000 0
M  V30 876 N 23.088000 20.338000 50.069000 0
M  V30 877 C 22.281000 20.607000 51.237000 0
M  V30 878 C 23.062000 20.292000 52.572000 0
M  V30 879 O 23.004000 21.168000 53.398000 0
M  V30 880 C 21.033000 19.736000 51.093000 0
M  V30 881 C 20.013000 20.283000 50.155000 0
M  V30 882 C 19.404000 19.626000 49.131000 0
M  V30 883 N 19.485000 21.595000 50.162000 0
M  V30 884 C 18.600000 21.673000 49.146000 0
M  V30 885 N 18.464000 20.458000 48.566000 0
M  V30 886 N 23.859000 19.234000 52.709000 0
M  V30 887 C 24.694000 19.013000 53.866000 0 CFG=2
M  V30 888 C 25.738000 20.093000 54.070000 0
M  V30 889 O 26.384000 20.151000 55.102000 0
M  V30 890 C 25.282000 17.575000 53.739000 0
M  V30 891 C 24.237000 16.522000 54.257000 0
M  V30 892 C 24.636000 15.050000 54.122000 0
M  V30 893 N 23.724000 14.142000 54.311000 0
M  V30 894 O 25.740000 14.592000 53.867000 0
M  V30 895 N 25.983000 20.989000 53.108000 0
M  V30 896 C 26.732000 22.200000 53.299000 0 CFG=2
M  V30 897 C 25.793000 23.401000 53.453000 0
M  V30 898 O 25.816000 23.979000 54.524000 0
M  V30 899 C 27.636000 22.309000 52.036000 0
M  V30 900 C 28.620000 23.506000 51.916000 0
M  V30 901 S 29.966000 23.148000 50.811000 0
M  V30 902 C 29.161000 23.448000 49.272000 0
M  V30 903 N 24.973000 23.776000 52.433000 0
M  V30 904 C 24.251000 25.031000 52.578000 0 CFG=2
M  V30 905 C 23.217000 25.053000 53.684000 0
M  V30 906 O 23.089000 26.010000 54.413000 0
M  V30 907 C 23.441000 25.313000 51.307000 0 CFG=1
M  V30 908 C 22.677000 26.612000 51.441000 0
M  V30 909 O 24.484000 25.467000 50.317000 0
M  V30 910 N 22.501000 23.981000 53.937000 0
M  V30 911 C 21.292000 24.036000 54.818000 0 CFG=2
M  V30 912 C 21.538000 24.298000 56.315000 0
M  V30 913 O 20.975000 25.282000 56.780000 0
M  V30 914 C 20.432000 22.744000 54.636000 0
M  V30 915 N 22.545000 23.647000 57.028000 0
M  V30 916 C 22.890000 23.946000 58.497000 0 CFG=2
M  V30 917 C 23.880000 25.047000 58.641000 0
M  V30 918 O 23.879000 25.594000 59.715000 0
M  V30 919 C 23.301000 22.561000 59.045000 0
M  V30 920 C 24.002000 21.801000 57.924000 0
M  V30 921 C 23.275000 22.391000 56.658000 0
M  V30 922 N 24.502000 25.598000 57.570000 0
M  V30 923 C 25.118000 26.922000 57.547000 0 CFG=2
M  V30 924 C 24.018000 28.013000 57.730000 0
M  V30 925 O 24.212000 28.986000 58.566000 0
M  V30 926 C 25.916000 27.147000 56.244000 0
M  V30 927 C 26.548000 28.523000 56.137000 0
M  V30 928 C 27.496000 28.912000 57.276000 0
M  V30 929 C 27.292000 28.719000 54.819000 0
M  V30 930 N 22.843000 27.936000 57.056000 0
M  V30 931 C 21.683000 28.847000 57.198000 0 CFG=2
M  V30 932 C 21.064000 28.713000 58.605000 0
M  V30 933 O 20.685000 29.689000 59.295000 0
M  V30 934 C 20.696000 28.631000 56.007000 0 CFG=2
M  V30 935 C 21.310000 29.142000 54.688000 0
M  V30 936 C 19.357000 29.386000 56.209000 0
M  V30 937 C 20.830000 28.315000 53.485000 0
M  V30 938 N 20.928000 27.519000 59.093000 0
M  V30 939 C 20.609000 27.298000 60.543000 0
M  V30 940 C 21.490000 28.219000 61.423000 0
M  V30 941 O 20.969000 28.937000 62.324000 0
M  V30 942 N 22.832000 28.239000 61.242000 0
M  V30 943 C 23.734000 28.998000 62.111000 0 CFG=2
M  V30 944 C 23.316000 30.501000 62.182000 0
M  V30 945 O 23.204000 31.093000 63.258000 0
M  V30 946 C 25.202000 28.873000 61.745000 0
M  V30 947 C 26.299000 29.516000 62.620000 0
M  V30 948 C 26.593000 30.900000 62.400000 0
M  V30 949 C 26.814000 28.715000 63.642000 0
M  V30 950 C 27.602000 31.397000 63.293000 0
M  V30 951 C 27.777000 29.299000 64.469000 0
M  V30 952 C 28.151000 30.637000 64.316000 0
M  V30 953 O 29.167000 31.148000 65.045000 0
M  V30 954 N 22.950000 31.034000 61.003000 0
M  V30 955 C 22.466000 32.386000 60.965000 0 CFG=2
M  V30 956 C 21.031000 32.577000 61.457000 0
M  V30 957 O 20.599000 33.568000 61.984000 0
M  V30 958 C 22.730000 32.950000 59.529000 0
M  V30 959 C 24.192000 33.188000 59.265000 0
M  V30 960 C 24.957000 34.057000 60.100000 0
M  V30 961 C 24.848000 32.516000 58.227000 0
M  V30 962 C 26.370000 34.189000 59.816000 0
M  V30 963 C 26.206000 32.799000 57.909000 0
M  V30 964 C 26.960000 33.657000 58.728000 0
M  V30 965 O 28.288000 33.921000 58.426000 0
M  V30 966 N 20.258000 31.480000 61.386000 0
M  V30 967 C 18.836000 31.686000 63.414000 0
M  V30 968 O 17.889000 32.283000 64.001000 0
M  V30 969 C 18.060000 30.332000 61.480000 0
M  V30 970 O 17.830000 30.223000 60.089000 0
M  V30 971 N 19.874000 31.026000 64.070000 0
M  V30 972 C 20.873000 32.275000 65.843000 0
M  V30 973 O 20.423000 32.867000 66.799000 0
M  V30 974 C 20.966000 29.637000 65.732000 0
M  V30 975 C 20.055000 28.368000 65.332000 0
M  V30 976 C 20.917000 27.139000 65.026000 0
M  V30 977 C 20.106000 26.025000 64.419000 0
M  V30 978 N 20.820000 24.711000 64.583000 0 CHG=1
M  V30 979 N 21.833000 32.826000 65.089000 0
M  V30 980 C 21.066000 35.271000 65.218000 0
M  V30 981 O 21.124000 36.242000 65.998000 0
M  V30 982 C 23.238000 34.581000 64.153000 0
M  V30 983 C 24.699000 34.106000 64.271000 0
M  V30 984 C 25.382000 34.645000 65.553000 0
M  V30 985 O 25.226000 33.971000 66.571000 0
M  V30 986 O 26.102000 35.741000 65.533000 0 CHG=-1
M  V30 987 N 20.070000 35.043000 64.343000 0
M  V30 988 C 17.895000 35.603000 65.512000 0
M  V30 989 O 17.324000 36.544000 66.076000 0
M  V30 990 C 18.145000 35.478000 62.982000 0
M  V30 991 N 17.585000 34.371000 65.900000 0
M  V30 992 C 17.627000 34.640000 68.452000 0
M  V30 993 O 17.052000 35.060000 69.427000 0
M  V30 994 C 16.654000 32.670000 67.316000 0
M  V30 995 C 15.645000 32.209000 68.378000 0
M  V30 996 C 14.241000 32.786000 68.112000 0
M  V30 997 O 13.541000 32.948000 69.116000 0
M  V30 998 O 13.809000 33.013000 66.962000 0 CHG=-1
M  V30 999 N 18.961000 34.801000 68.390000 0
M  V30 1000 C 19.734000 37.171000 69.183000 0
M  V30 1001 O 20.122000 37.991000 70.029000 0
M  V30 1002 C 21.172000 35.127000 69.348000 0
M  V30 1003 N 19.220000 37.616000 68.059000 0
M  V30 1004 C 20.441000 39.694000 67.150000 0
M  V30 1005 O 20.468000 40.865000 66.805000 0
M  V30 1006 N 21.599000 38.973000 67.082000 0
M  V30 1007 C 22.833000 39.884000 65.040000 0
M  V30 1008 O 23.635000 40.639000 64.595000 0
M  V30 1009 C 23.903000 38.372000 66.834000 0
M  V30 1010 C 24.148000 37.919000 68.251000 0
M  V30 1011 N 24.564000 36.673000 68.303000 0
M  V30 1012 O 24.129000 38.619000 69.238000 0
M  V30 1013 N 21.774000 39.413000 64.380000 0
M  V30 1014 C 20.015000 39.392000 62.654000 0
M  V30 1015 O 19.359000 38.943000 63.592000 0
M  V30 1016 C 22.383000 38.802000 62.116000 0
M  V30 1017 C 22.077000 37.325000 62.105000 0
M  V30 1018 O 22.335000 39.288000 60.783000 0
M  V30 1019 N 19.537000 39.587000 61.449000 0
M  V30 1020 C 17.995000 38.261000 60.034000 0
M  V30 1021 O 18.796000 38.256000 59.132000 0
M  V30 1022 C 17.376000 40.640000 60.765000 0
M  V30 1023 C 17.246000 41.520000 62.042000 0
M  V30 1024 C 16.659000 42.965000 61.847000 0
M  V30 1025 C 17.068000 43.835000 60.728000 0
M  V30 1026 N 18.505000 44.300000 60.901000 0 CHG=1
M  V30 1027 N 17.057000 37.345000 60.137000 0
M  V30 1028 C 15.476000 36.969000 58.312000 0
M  V30 1029 O 14.560000 37.578000 58.814000 0
M  V30 1030 C 16.291000 35.004000 59.695000 0
M  V30 1031 C 15.917000 33.808000 58.745000 0
M  V30 1032 C 16.859000 32.839000 58.308000 0
M  V30 1033 C 14.586000 33.810000 58.332000 0
M  V30 1034 C 16.351000 31.802000 57.443000 0
M  V30 1035 C 14.144000 32.759000 57.521000 0
M  V30 1036 C 15.006000 31.759000 57.043000 0
M  V30 1037 O 14.428000 30.800000 56.253000 0
M  V30 1038 N 15.515000 36.727000 57.012000 0
M  V30 1039 C 14.656000 35.635000 55.017000 0
M  V30 1040 O 15.734000 35.616000 54.474000 0
M  V30 1041 C 14.209000 38.189000 55.584000 0
M  V30 1042 N 13.597000 34.792000 54.766000 0
M  V30 1043 C 12.788000 34.745000 52.368000 0
M  V30 1044 O 11.928000 35.618000 52.539000 0
M  V30 1045 C 12.331000 32.920000 53.967000 0
M  V30 1046 C 12.367000 31.792000 52.931000 0
M  V30 1047 C 11.447000 30.607000 53.224000 0
M  V30 1048 C 11.816000 29.827000 54.461000 0
M  V30 1049 N 13.002000 28.883000 54.318000 0 CHG=1
M  V30 1050 N 13.135000 34.332000 51.147000 0
M  V30 1051 C 12.284000 33.371000 48.924000 0
M  V30 1052 O 13.132000 32.455000 49.019000 0
M  V30 1053 C 12.911000 35.876000 49.195000 0
M  V30 1054 C 12.508000 37.264000 49.803000 0
M  V30 1055 C 14.448000 35.789000 48.969000 0
M  V30 1056 N 11.147000 33.305000 48.217000 0
M  V30 1057 C 11.262000 32.530000 45.869000 0
M  V30 1058 O 10.721000 33.355000 45.093000 0
M  V30 1059 C 9.251000 32.067000 47.365000 0
M  V30 1060 C 8.693000 31.058000 46.417000 0
M  V30 1061 O 9.472000 30.358000 45.796000 0
M  V30 1062 O 7.496000 30.745000 46.400000 0 CHG=-1
M  V30 1063 N 12.424000 31.957000 45.592000 0
M  V30 1064 C 12.468000 31.317000 43.169000 0
M  V30 1065 O 12.980000 31.380000 42.054000 0
M  V30 1066 N 11.308000 30.665000 43.400000 0
M  V30 1067 C 9.426000 31.293000 41.671000 0
M  V30 1068 O 8.823000 31.085000 40.675000 0
M  V30 1069 C 9.526000 29.074000 42.723000 0
M  V30 1070 C 10.257000 27.907000 43.418000 0
M  V30 1071 O 8.452000 29.379000 43.524000 0
M  V30 1072 N 9.409000 32.442000 42.311000 0
M  V30 1073 C 9.616000 34.188000 40.473000 0
M  V30 1074 O 10.826000 33.979000 40.365000 0
M  V30 1075 C 8.671000 34.715000 42.813000 0
M  V30 1076 C 7.865000 34.389000 44.070000 0
M  V30 1077 C 7.808000 35.592000 45.077000 0
M  V30 1078 C 6.605000 36.576000 45.020000 0
M  V30 1079 N 6.837000 37.901000 45.738000 0 CHG=1
M  V30 1080 N 8.948000 34.974000 39.606000 0
M  V30 1081 C 10.567000 36.838000 39.118000 0
M  V30 1082 O 10.360000 37.307000 40.208000 0
M  V30 1083 C 8.523000 36.443000 37.654000 0
M  V30 1084 C 7.244000 35.710000 38.062000 0
M  V30 1085 C 7.503000 35.289000 39.472000 0
M  V30 1086 N 11.620000 37.228000 38.357000 0
M  V30 1087 C 12.213000 39.540000 39.371000 0
M  V30 1088 O 12.798000 40.001000 40.344000 0
M  V30 1089 C 13.733000 38.514000 37.450000 0
M  V30 1090 C 13.135000 39.127000 36.128000 0
M  V30 1091 C 14.990000 39.338000 37.770000 0
M  V30 1092 N 11.129000 40.180000 38.894000 0
M  V30 1093 C 9.980000 41.239000 40.782000 0
M  V30 1094 O 10.027000 41.952000 41.780000 0
M  V30 1095 C 9.825000 42.253000 38.447000 0
M  V30 1096 N 9.318000 40.111000 40.970000 0
M  V30 1097 C 9.343000 39.246000 43.284000 0
M  V30 1098 O 8.932000 39.356000 44.460000 0
M  V30 1099 C 7.685000 38.478000 41.701000 0
M  V30 1100 C 6.671000 38.813000 40.564000 0
M  V30 1101 C 5.788000 39.968000 40.837000 0
M  V30 1102 O 5.749000 40.992000 40.091000 0
M  V30 1103 O 5.111000 39.877000 41.863000 0 CHG=-1
M  V30 1104 N 10.491000 38.657000 43.063000 0
M  V30 1105 C 12.122000 39.823000 44.414000 0
M  V30 1106 O 12.182000 40.027000 45.654000 0
M  V30 1107 C 12.630000 37.632000 43.416000 0
M  V30 1108 C 13.735000 37.345000 44.476000 0
M  V30 1109 C 12.118000 36.349000 42.903000 0
M  V30 1110 N 12.304000 40.790000 43.469000 0
M  V30 1111 C 12.128000 43.051000 44.509000 0
M  V30 1112 O 12.524000 43.736000 45.480000 0
M  V30 1113 C 13.317000 42.769000 42.283000 0
M  V30 1114 C 14.350000 43.928000 42.428000 0
M  V30 1115 C 14.451000 44.597000 41.028000 0
M  V30 1116 N 15.187000 45.860000 41.105000 0
M  V30 1117 C 15.258000 46.795000 40.164000 0
M  V30 1118 N 14.607000 46.684000 39.041000 0 CHG=1
M  V30 1119 N 15.949000 47.892000 40.248000 0
M  V30 1120 N 10.837000 42.977000 44.187000 0
M  V30 1121 C 9.557000 43.421000 46.328000 0
M  V30 1122 O 9.229000 44.278000 47.117000 0
M  V30 1123 C 8.386000 43.452000 44.165000 0
M  V30 1124 N 9.825000 42.196000 46.683000 0
M  V30 1125 C 11.191000 42.039000 48.811000 0
M  V30 1126 O 11.145000 42.251000 49.988000 0
M  V30 1127 C 9.575000 40.193000 48.248000 0
M  V30 1128 C 8.080000 39.866000 48.293000 0
M  V30 1129 O 7.767000 38.680000 48.308000 0
M  V30 1130 O 7.202000 40.769000 48.199000 0 CHG=-1
M  V30 1131 N 12.278000 42.173000 48.116000 0
M  V30 1132 C 13.619000 43.985000 49.211000 0
M  V30 1133 O 14.237000 44.300000 50.207000 0
M  V30 1134 C 14.757000 42.025000 47.880000 0
M  V30 1135 C 14.892000 40.484000 47.855000 0
M  V30 1136 C 15.709000 40.020000 46.584000 0
M  V30 1137 C 15.696000 40.084000 49.112000 0
M  V30 1138 N 12.975000 44.802000 48.464000 0
M  V30 1139 C 11.817000 46.597000 49.889000 0
M  V30 1140 O 11.895000 47.632000 50.489000 0
M  V30 1141 C 12.370000 46.914000 47.414000 0
M  V30 1142 C 13.451000 46.888000 46.228000 0
M  V30 1143 C 13.016000 47.817000 45.151000 0
M  V30 1144 O 12.004000 47.549000 44.473000 0
M  V30 1145 O 13.683000 48.736000 44.840000 0 CHG=-1
M  V30 1146 N 11.054000 45.570000 50.284000 0
M  V30 1147 C 10.883000 45.192000 52.769000 0
M  V30 1148 O 10.431000 45.569000 53.847000 0
M  V30 1149 C 8.917000 44.750000 51.347000 0
M  V30 1150 C 7.751000 45.638000 50.901000 0
M  V30 1151 C 6.492000 44.709000 50.653000 0
M  V30 1152 C 6.783000 43.585000 49.619000 0
M  V30 1153 N 5.891000 42.471000 49.893000 0 CHG=1
M  V30 1154 N 11.947000 44.381000 52.663000 0
M  V30 1155 C 13.901000 44.902000 53.980000 0
M  V30 1156 O 14.094000 45.386000 55.127000 0
M  V30 1157 C 13.308000 42.444000 53.551000 0
M  V30 1158 C 12.215000 41.375000 53.301000 0
M  V30 1159 C 14.183000 42.138000 54.716000 0
M  V30 1160 C 12.721000 40.227000 52.397000 0
M  V30 1161 N 14.631000 45.252000 52.916000 0
M  V30 1162 C 15.429000 47.708000 53.078000 0
M  V30 1163 O 16.158000 48.426000 53.762000 0
M  V30 1164 C 16.728000 45.794000 51.893000 0
M  V30 1165 C 17.301000 44.303000 52.008000 0
M  V30 1166 C 18.330000 44.095000 50.864000 0
M  V30 1167 C 17.923000 43.735000 53.304000 0
M  V30 1168 N 14.275000 48.101000 52.484000 0
M  V30 1169 C 14.515000 50.320000 51.571000 0
M  V30 1170 O 14.871000 51.403000 52.013000 0
M  V30 1171 O 14.529000 50.063000 50.348000 0 CHG=-1
M  V30 END ATOM
M  V30 BEGIN BOND
M  V30 1 2 3 2
M  V30 2 1 5 4
M  V30 3 1 6 5
M  V30 4 1 7 6
M  V30 5 1 8 2
M  V30 6 2 10 9
M  V30 7 1 12 11
M  V30 8 1 13 12
M  V30 9 1 14 13
M  V30 10 1 15 14
M  V30 11 1 16 15
M  V30 12 2 17 15
M  V30 13 1 18 9
M  V30 14 2 20 19
M  V30 15 1 22 21
M  V30 16 1 23 21
M  V30 17 1 24 22
M  V30 18 1 25 19
M  V30 19 1 26 25 CFG=1
M  V30 20 1 27 26
M  V30 21 2 28 27
M  V30 22 1 29 26
M  V30 23 1 30 29
M  V30 24 1 29 31 CFG=3
M  V30 25 1 32 30
M  V30 26 1 33 27
M  V30 27 1 34 33
M  V30 28 1 35 34
M  V30 29 2 36 35
M  V30 30 1 34 37 CFG=3
M  V30 31 1 38 37
M  V30 32 1 39 38
M  V30 33 1 40 38
M  V30 34 1 41 35
M  V30 35 1 42 41
M  V30 36 1 43 42
M  V30 37 2 44 43
M  V30 38 1 42 45 CFG=1
M  V30 39 1 46 45
M  V30 40 1 47 46
M  V30 41 1 48 46
M  V30 42 1 49 43
M  V30 43 1 50 49
M  V30 44 1 51 50
M  V30 45 2 52 51
M  V30 46 1 53 51
M  V30 47 1 54 53
M  V30 48 1 55 54
M  V30 49 2 56 55
M  V30 50 1 54 57 CFG=3
M  V30 51 1 58 55
M  V30 52 1 59 58
M  V30 53 1 59 60 CFG=3
M  V30 54 2 61 60
M  V30 55 1 62 59
M  V30 56 1 63 62
M  V30 57 1 64 63
M  V30 58 1 64 58
M  V30 59 1 65 60
M  V30 60 1 66 65
M  V30 61 1 67 66
M  V30 62 2 68 67
M  V30 63 1 69 67
M  V30 64 1 70 69
M  V30 65 1 71 70
M  V30 66 2 72 71
M  V30 67 1 70 73 CFG=1
M  V30 68 1 74 71
M  V30 69 1 75 74
M  V30 70 1 76 75
M  V30 71 2 77 76
M  V30 72 1 78 76
M  V30 73 1 79 78
M  V30 74 1 80 79
M  V30 75 2 81 80
M  V30 76 1 79 82 CFG=3
M  V30 77 1 83 82
M  V30 78 1 84 83
M  V30 79 1 85 84
M  V30 80 1 86 85
M  V30 81 1 87 80
M  V30 82 1 88 87
M  V30 83 1 89 88
M  V30 84 2 90 89
M  V30 85 1 91 89
M  V30 86 1 92 91 CFG=1
M  V30 87 1 93 92
M  V30 88 2 94 93
M  V30 89 1 95 92
M  V30 90 1 95 96 CFG=3
M  V30 91 1 97 95
M  V30 92 1 98 93
M  V30 93 1 99 98
M  V30 94 1 100 99
M  V30 95 2 101 100
M  V30 96 1 99 102 CFG=1
M  V30 97 1 103 102
M  V30 98 1 104 103
M  V30 99 1 105 104
M  V30 100 2 106 104
M  V30 101 1 107 100
M  V30 102 1 108 107
M  V30 103 1 109 108
M  V30 104 2 110 109
M  V30 105 1 108 111 CFG=3
M  V30 106 1 112 109
M  V30 107 1 113 112
M  V30 108 1 114 113
M  V30 109 2 115 114
M  V30 110 1 113 116 CFG=3
M  V30 111 1 117 116
M  V30 112 1 118 117
M  V30 113 1 119 118
M  V30 114 2 120 118
M  V30 115 1 121 114
M  V30 116 1 122 121
M  V30 117 1 123 122
M  V30 118 2 124 123
M  V30 119 1 122 125 CFG=1
M  V30 120 1 126 125
M  V30 121 2 127 126
M  V30 122 1 128 126
M  V30 123 1 129 127
M  V30 124 2 130 128
M  V30 125 1 131 130
M  V30 126 2 131 129
M  V30 127 1 132 123
M  V30 128 2 134 133
M  V30 129 1 136 135
M  V30 130 1 137 135
M  V30 131 1 138 136
M  V30 132 1 139 133
M  V30 133 2 141 140
M  V30 134 1 143 142
M  V30 135 1 144 143
M  V30 136 1 145 144
M  V30 137 1 146 140
M  V30 138 2 148 147
M  V30 139 1 150 149
M  V30 140 1 151 150
M  V30 141 2 152 151
M  V30 142 1 153 151
M  V30 143 1 154 147
M  V30 144 2 156 155
M  V30 145 1 158 157
M  V30 146 1 159 158
M  V30 147 1 160 159
M  V30 148 1 161 160
M  V30 149 1 162 155
M  V30 150 2 164 163
M  V30 151 1 166 165
M  V30 152 2 167 166
M  V30 153 1 168 166
M  V30 154 1 169 167
M  V30 155 2 170 168
M  V30 156 1 171 170
M  V30 157 2 171 169
M  V30 158 1 172 171
M  V30 159 1 173 163
M  V30 160 2 175 174
M  V30 161 1 176 174
M  V30 162 2 178 177
M  V30 163 1 180 179
M  V30 164 1 181 179
M  V30 165 1 182 180
M  V30 166 1 183 177
M  V30 167 2 185 184
M  V30 168 1 187 186
M  V30 169 1 188 187
M  V30 170 1 188 183
M  V30 171 1 189 184
M  V30 172 2 191 190
M  V30 173 1 193 192
M  V30 174 1 194 193
M  V30 175 1 195 194
M  V30 176 2 196 194
M  V30 177 1 197 190
M  V30 178 1 198 197 CFG=1
M  V30 179 1 199 198
M  V30 180 2 200 199
M  V30 181 1 201 198
M  V30 182 1 202 201
M  V30 183 1 201 203 CFG=3
M  V30 184 1 204 202
M  V30 185 1 205 199
M  V30 186 1 206 205
M  V30 187 1 207 206
M  V30 188 2 208 207
M  V30 189 1 206 209 CFG=3
M  V30 190 1 210 209
M  V30 191 1 211 207
M  V30 192 1 212 211 CFG=3
M  V30 193 1 213 212
M  V30 194 2 214 213
M  V30 195 1 215 212
M  V30 196 1 215 216 CFG=1
M  V30 197 1 217 215
M  V30 198 1 218 213
M  V30 199 1 219 218
M  V30 200 1 220 219
M  V30 201 2 221 220
M  V30 202 1 222 220
M  V30 203 2 224 223
M  V30 204 1 226 225
M  V30 205 2 227 226
M  V30 206 1 228 226
M  V30 207 1 229 223
M  V30 208 2 231 230
M  V30 209 1 233 232
M  V30 210 1 234 233
M  V30 211 1 235 234
M  V30 212 1 236 230
M  V30 213 2 238 237
M  V30 214 1 240 239
M  V30 215 1 241 240
M  V30 216 1 242 240
M  V30 217 1 243 237
M  V30 218 2 245 244
M  V30 219 1 247 246
M  V30 220 1 248 247
M  V30 221 1 249 248
M  V30 222 1 250 249
M  V30 223 1 251 250
M  V30 224 2 252 250
M  V30 225 1 253 244
M  V30 226 2 255 254
M  V30 227 1 257 254
M  V30 228 2 259 258
M  V30 229 1 261 258
M  V30 230 2 263 262
M  V30 231 1 265 264
M  V30 232 1 266 264
M  V30 233 1 267 262
M  V30 234 2 269 268
M  V30 235 1 271 270
M  V30 236 1 272 271
M  V30 237 1 273 272
M  V30 238 1 274 273
M  V30 239 1 275 268
M  V30 240 2 277 276
M  V30 241 1 279 278
M  V30 242 1 280 276
M  V30 243 2 282 281
M  V30 244 1 283 281
M  V30 245 2 285 284
M  V30 246 1 287 286
M  V30 247 1 288 284
M  V30 248 2 290 289
M  V30 249 1 292 291
M  V30 250 1 293 292
M  V30 251 2 294 293
M  V30 252 1 295 293
M  V30 253 1 296 289
M  V30 254 2 298 297
M  V30 255 1 300 299
M  V30 256 1 301 300
M  V30 257 1 302 300
M  V30 258 1 303 297
M  V30 259 2 305 304
M  V30 260 1 306 304
M  V30 261 2 308 307
M  V30 262 1 310 309
M  V30 263 1 311 310
M  V30 264 1 312 311
M  V30 265 1 313 312
M  V30 266 1 314 307
M  V30 267 1 315 314
M  V30 268 1 316 315
M  V30 269 2 317 316
M  V30 270 1 315 318 CFG=1
M  V30 271 1 319 318
M  V30 272 1 320 319
M  V30 273 1 321 320
M  V30 274 2 322 320
M  V30 275 1 323 316
M  V30 276 1 324 323
M  V30 277 1 325 324
M  V30 278 2 326 325
M  V30 279 1 324 327 CFG=3
M  V30 280 1 328 325
M  V30 281 1 329 328
M  V30 282 1 330 329
M  V30 283 2 331 330
M  V30 284 1 329 332 CFG=3
M  V30 285 1 333 332
M  V30 286 1 334 333
M  V30 287 1 335 334
M  V30 288 1 336 335
M  V30 289 1 337 330
M  V30 290 1 338 337
M  V30 291 1 339 338
M  V30 292 2 340 339
M  V30 293 1 338 341 CFG=1
M  V30 294 1 342 341
M  V30 295 2 343 342
M  V30 296 1 344 342
M  V30 297 1 345 339
M  V30 298 1 346 345 CFG=1
M  V30 299 1 347 346
M  V30 300 2 348 347
M  V30 301 1 349 346
M  V30 302 1 350 349
M  V30 303 1 349 351 CFG=3
M  V30 304 1 352 350
M  V30 305 1 353 347
M  V30 306 1 354 353
M  V30 307 1 355 354
M  V30 308 2 356 355
M  V30 309 1 354 357 CFG=1
M  V30 310 1 358 357
M  V30 311 1 359 358
M  V30 312 1 360 359
M  V30 313 1 361 355
M  V30 314 1 362 361
M  V30 315 1 363 362
M  V30 316 2 364 363
M  V30 317 1 362 365 CFG=1
M  V30 318 1 366 365
M  V30 319 2 367 366
M  V30 320 1 368 366
M  V30 321 1 369 363
M  V30 322 1 370 369
M  V30 323 1 371 370
M  V30 324 2 372 371
M  V30 325 1 370 373 CFG=1
M  V30 326 1 374 371
M  V30 327 1 375 374
M  V30 328 1 376 375
M  V30 329 2 377 376
M  V30 330 1 378 376
M  V30 331 1 379 378
M  V30 332 1 380 379
M  V30 333 2 381 380
M  V30 334 1 379 382 CFG=1
M  V30 335 1 383 382
M  V30 336 1 384 383
M  V30 337 1 385 384
M  V30 338 1 386 385
M  V30 339 1 387 380
M  V30 340 1 388 387
M  V30 341 1 389 388
M  V30 342 2 390 389
M  V30 343 1 388 391 CFG=1
M  V30 344 1 392 391
M  V30 345 1 393 392
M  V30 346 1 394 392
M  V30 347 1 395 389
M  V30 348 1 396 395 CFG=3
M  V30 349 1 397 396
M  V30 350 2 398 397
M  V30 351 1 399 396
M  V30 352 1 400 399
M  V30 353 1 401 399
M  V30 354 1 402 397
M  V30 355 1 403 402 CFG=3
M  V30 356 1 404 403
M  V30 357 2 405 404
M  V30 358 1 406 403
M  V30 359 1 406 407 CFG=3
M  V30 360 1 408 406
M  V30 361 1 409 404
M  V30 362 1 410 409
M  V30 363 1 411 410
M  V30 364 2 412 411
M  V30 365 1 410 413 CFG=1
M  V30 366 1 414 413
M  V30 367 2 415 414
M  V30 368 1 416 414
M  V30 369 1 417 411
M  V30 370 1 418 417
M  V30 371 1 419 418
M  V30 372 2 420 419
M  V30 373 1 418 421 CFG=3
M  V30 374 1 422 421
M  V30 375 1 423 422
M  V30 376 2 424 423
M  V30 377 1 425 423
M  V30 378 1 426 419
M  V30 379 1 427 426
M  V30 380 1 428 427
M  V30 381 2 429 428
M  V30 382 1 427 430 CFG=3
M  V30 383 1 431 430
M  V30 384 1 432 431
M  V30 385 1 433 431
M  V30 386 1 434 428
M  V30 387 1 435 434 CFG=1
M  V30 388 1 436 435
M  V30 389 2 437 436
M  V30 390 1 438 435
M  V30 391 1 439 438
M  V30 392 1 440 438
M  V30 393 1 441 436
M  V30 394 2 443 442
M  V30 395 1 445 444
M  V30 396 1 446 444
M  V30 397 1 447 445
M  V30 398 1 448 442
M  V30 399 2 450 449
M  V30 400 1 452 449
M  V30 401 2 454 453
M  V30 402 1 456 455
M  V30 403 1 457 456
M  V30 404 1 458 456
M  V30 405 1 459 453
M  V30 406 2 461 460
M  V30 407 1 463 462
M  V30 408 1 464 462
M  V30 409 1 465 460
M  V30 410 2 467 466
M  V30 411 1 469 468
M  V30 412 1 470 469
M  V30 413 1 471 470
M  V30 414 1 472 471
M  V30 415 1 473 466
M  V30 416 2 475 474
M  V30 417 1 477 476
M  V30 418 1 478 477
M  V30 419 2 479 478
M  V30 420 1 480 478
M  V30 421 1 481 474
M  V30 422 2 483 482
M  V30 423 1 485 484
M  V30 424 1 486 485
M  V30 425 1 487 486
M  V30 426 1 488 487
M  V30 427 1 489 488
M  V30 428 2 490 488
M  V30 429 1 491 482
M  V30 430 2 493 492
M  V30 431 1 495 494
M  V30 432 1 496 494
M  V30 433 1 497 495
M  V30 434 1 498 492
M  V30 435 2 500 499
M  V30 436 1 502 499
M  V30 437 2 504 503
M  V30 438 1 506 505
M  V30 439 1 507 506
M  V30 440 1 508 507
M  V30 441 2 509 507
M  V30 442 1 510 503
M  V30 443 2 512 511
M  V30 444 1 514 513
M  V30 445 1 515 514
M  V30 446 2 516 515
M  V30 447 1 517 515
M  V30 448 1 518 511
M  V30 449 2 520 519
M  V30 450 1 522 521
M  V30 451 2 523 522
M  V30 452 1 524 522
M  V30 453 1 525 519
M  V30 454 2 527 526
M  V30 455 1 529 528
M  V30 456 1 530 526
M  V30 457 2 532 531
M  V30 458 1 534 533
M  V30 459 1 535 534
M  V30 460 1 536 535
M  V30 461 1 537 536
M  V30 462 1 538 537
M  V30 463 2 539 537
M  V30 464 1 540 531
M  V30 465 2 542 541
M  V30 466 1 544 543
M  V30 467 1 545 544
M  V30 468 2 546 544
M  V30 469 1 547 541
M  V30 470 2 549 548
M  V30 471 1 550 548
M  V30 472 2 552 551
M  V30 473 1 554 553
M  V30 474 2 555 554
M  V30 475 1 556 554
M  V30 476 1 557 555
M  V30 477 2 558 556
M  V30 478 1 559 558
M  V30 479 2 559 557
M  V30 480 1 560 551
M  V30 481 2 562 561
M  V30 482 1 564 563
M  V30 483 1 565 564
M  V30 484 1 566 564
M  V30 485 1 567 561
M  V30 486 1 568 567
M  V30 487 1 569 568
M  V30 488 2 570 569
M  V30 489 1 568 571 CFG=1
M  V30 490 1 572 571
M  V30 491 1 573 572
M  V30 492 1 574 572
M  V30 493 1 575 569
M  V30 494 1 576 575
M  V30 495 1 577 576
M  V30 496 2 578 577
M  V30 497 1 576 579 CFG=3
M  V30 498 1 580 579
M  V30 499 2 581 580
M  V30 500 1 582 580
M  V30 501 1 583 577
M  V30 502 1 584 583
M  V30 503 1 585 584
M  V30 504 2 586 585
M  V30 505 1 587 585
M  V30 506 1 588 587
M  V30 507 1 589 588
M  V30 508 2 590 589
M  V30 509 1 588 591 CFG=3
M  V30 510 1 592 591
M  V30 511 2 593 592
M  V30 512 1 594 592
M  V30 513 1 595 593
M  V30 514 2 596 594
M  V30 515 1 597 596
M  V30 516 2 597 595
M  V30 517 1 598 589
M  V30 518 1 599 598
M  V30 519 1 599 600 CFG=3
M  V30 520 2 601 600
M  V30 521 1 602 599
M  V30 522 1 603 602
M  V30 523 1 604 598
M  V30 524 1 604 603
M  V30 525 1 605 600
M  V30 526 1 606 605
M  V30 527 1 607 606
M  V30 528 2 608 607
M  V30 529 1 606 609 CFG=1
M  V30 530 1 610 609
M  V30 531 1 611 610
M  V30 532 1 612 611
M  V30 533 1 613 612
M  V30 534 1 614 613
M  V30 535 2 615 613
M  V30 536 1 616 607
M  V30 537 1 617 616 CFG=3
M  V30 538 1 618 617
M  V30 539 2 619 618
M  V30 540 1 620 617
M  V30 541 1 620 621 CFG=3
M  V30 542 1 622 620
M  V30 543 1 623 618
M  V30 544 1 624 623 CFG=3
M  V30 545 1 625 624
M  V30 546 2 626 625
M  V30 547 1 627 624
M  V30 548 1 628 627
M  V30 549 1 627 629 CFG=1
M  V30 550 1 630 628
M  V30 551 1 631 625
M  V30 552 1 632 631
M  V30 553 1 632 633 CFG=3
M  V30 554 2 634 633
M  V30 555 1 635 632
M  V30 556 1 636 635
M  V30 557 1 637 631
M  V30 558 1 637 636
M  V30 559 1 638 633
M  V30 560 1 639 638
M  V30 561 1 640 639
M  V30 562 2 641 640
M  V30 563 1 639 642 CFG=3
M  V30 564 1 643 642
M  V30 565 1 644 643
M  V30 566 1 645 644
M  V30 567 2 646 644
M  V30 568 1 647 640
M  V30 569 1 648 647
M  V30 570 1 649 648
M  V30 571 2 650 649
M  V30 572 1 648 651 CFG=1
M  V30 573 1 652 649
M  V30 574 1 653 652
M  V30 575 1 654 653
M  V30 576 2 655 654
M  V30 577 1 653 656 CFG=1
M  V30 578 1 657 656
M  V30 579 2 658 657
M  V30 580 1 659 657
M  V30 581 1 660 654
M  V30 582 1 661 660
M  V30 583 1 662 661
M  V30 584 2 663 662
M  V30 585 1 661 664 CFG=3
M  V30 586 1 665 662
M  V30 587 2 667 666
M  V30 588 1 669 668
M  V30 589 1 670 669
M  V30 590 1 671 670
M  V30 591 1 672 666
M  V30 592 1 673 672
M  V30 593 1 674 673
M  V30 594 2 675 674
M  V30 595 1 673 676 CFG=1
M  V30 596 1 677 676
M  V30 597 1 678 677
M  V30 598 1 679 678
M  V30 599 1 680 679
M  V30 600 1 681 674
M  V30 601 2 683 682
M  V30 602 1 685 684
M  V30 603 1 686 685
M  V30 604 2 687 686
M  V30 605 1 688 686
M  V30 606 1 689 682
M  V30 607 2 691 690
M  V30 608 1 693 690
M  V30 609 2 695 694
M  V30 610 1 696 694
M  V30 611 2 698 697
M  V30 612 1 700 699
M  V30 613 1 701 699
M  V30 614 1 702 700
M  V30 615 1 703 697
M  V30 616 2 705 704
M  V30 617 1 707 706
M  V30 618 1 708 707
M  V30 619 2 709 707
M  V30 620 1 710 704
M  V30 621 2 712 711
M  V30 622 1 714 713
M  V30 623 1 715 713
M  V30 624 1 716 711
M  V30 625 2 718 717
M  V30 626 1 720 719
M  V30 627 2 721 720
M  V30 628 1 722 720
M  V30 629 1 723 717
M  V30 630 2 725 724
M  V30 631 1 727 726
M  V30 632 2 728 727
M  V30 633 1 729 727
M  V30 634 1 730 728
M  V30 635 2 731 729
M  V30 636 1 732 731
M  V30 637 2 732 730
M  V30 638 1 733 732
M  V30 639 1 734 724
M  V30 640 1 735 734 CFG=1
M  V30 641 1 736 735
M  V30 642 2 737 736
M  V30 643 1 738 735
M  V30 644 1 739 738
M  V30 645 1 740 738
M  V30 646 1 741 736
M  V30 647 2 743 742
M  V30 648 1 745 744
M  V30 649 1 746 745
M  V30 650 1 747 745
M  V30 651 1 748 742
M  V30 652 2 750 749
M  V30 653 1 752 751
M  V30 654 1 753 752
M  V30 655 2 754 753
M  V30 656 1 755 753
M  V30 657 1 756 749
M  V30 658 2 758 757
M  V30 659 1 760 759
M  V30 660 2 761 760
M  V30 661 1 762 760
M  V30 662 1 763 761
M  V30 663 2 764 762
M  V30 664 1 765 764
M  V30 665 2 765 763
M  V30 666 1 766 757
M  V30 667 2 768 767
M  V30 668 1 770 769
M  V30 669 2 771 770
M  V30 670 1 772 770
M  V30 671 1 773 767
M  V30 672 2 775 774
M  V30 673 1 777 776
M  V30 674 1 778 776
M  V30 675 1 779 774
M  V30 676 2 781 780
M  V30 677 1 783 782
M  V30 678 1 784 783
M  V30 679 1 784 779
M  V30 680 1 785 780
M  V30 681 2 787 786
M  V30 682 1 789 788
M  V30 683 2 790 789
M  V30 684 1 791 789
M  V30 685 1 792 786
M  V30 686 2 794 793
M  V30 687 1 796 795
M  V30 688 1 797 796
M  V30 689 2 798 797
M  V30 690 1 799 797
M  V30 691 1 800 793
M  V30 692 2 802 801
M  V30 693 1 804 803
M  V30 694 1 805 804
M  V30 695 1 806 804
M  V30 696 1 807 801
M  V30 697 2 809 808
M  V30 698 1 811 810
M  V30 699 1 812 810
M  V30 700 1 813 811
M  V30 701 1 814 808
M  V30 702 2 816 815
M  V30 703 1 818 817
M  V30 704 1 819 817
M  V30 705 1 821 820 CFG=3
M  V30 706 1 822 821
M  V30 707 2 823 822
M  V30 708 1 824 821
M  V30 709 1 825 824
M  V30 710 1 826 825
M  V30 711 1 827 826
M  V30 712 1 828 827
M  V30 713 1 829 822
M  V30 714 1 830 829
M  V30 715 1 831 830
M  V30 716 2 832 831
M  V30 717 1 830 833 CFG=3
M  V30 718 1 834 833
M  V30 719 1 835 834
M  V30 720 1 836 835
M  V30 721 1 837 836
M  V30 722 1 838 837
M  V30 723 2 839 837
M  V30 724 1 840 831
M  V30 725 1 841 840
M  V30 726 1 842 841
M  V30 727 2 843 842
M  V30 728 1 841 844 CFG=1
M  V30 729 1 845 844
M  V30 730 1 846 845
M  V30 731 1 847 845
M  V30 732 1 848 842
M  V30 733 1 849 848 CFG=3
M  V30 734 1 850 849
M  V30 735 2 851 850
M  V30 736 1 852 849
M  V30 737 1 853 852
M  V30 738 1 854 852
M  V30 739 1 855 850
M  V30 740 1 856 855
M  V30 741 1 857 856
M  V30 742 2 858 857
M  V30 743 1 856 859 CFG=3
M  V30 744 1 860 859
M  V30 745 1 861 860
M  V30 746 2 862 861
M  V30 747 1 863 861
M  V30 748 1 864 857
M  V30 749 1 865 864
M  V30 750 1 866 865
M  V30 751 2 867 866
M  V30 752 1 865 868 CFG=3
M  V30 753 1 869 868
M  V30 754 2 870 869
M  V30 755 1 871 869
M  V30 756 1 872 870
M  V30 757 2 873 871
M  V30 758 1 874 873
M  V30 759 2 874 872
M  V30 760 1 875 874
M  V30 761 1 876 866
M  V30 762 1 877 876
M  V30 763 1 878 877
M  V30 764 1 879 878
M  V30 765 1 880 877
M  V30 766 1 881 880
M  V30 767 1 882 881
M  V30 768 1 883 881
M  V30 769 1 884 883
M  V30 770 1 885 884
M  V30 771 1 885 882
M  V30 772 1 886 878
M  V30 773 1 887 886
M  V30 774 1 888 887
M  V30 775 2 889 888
M  V30 776 1 887 890 CFG=3
M  V30 777 1 891 890
M  V30 778 1 892 891
M  V30 779 1 893 892
M  V30 780 2 894 892
M  V30 781 1 895 888
M  V30 782 1 896 895
M  V30 783 1 897 896
M  V30 784 2 898 897
M  V30 785 1 896 899 CFG=3
M  V30 786 1 900 899
M  V30 787 1 901 900
M  V30 788 1 902 901
M  V30 789 1 903 897
M  V30 790 1 904 903 CFG=3
M  V30 791 1 905 904
M  V30 792 2 906 905
M  V30 793 1 907 904
M  V30 794 1 907 908 CFG=1
M  V30 795 1 909 907
M  V30 796 1 910 905
M  V30 797 1 911 910
M  V30 798 1 912 911
M  V30 799 2 913 912
M  V30 800 1 911 914 CFG=1
M  V30 801 1 915 912
M  V30 802 1 916 915
M  V30 803 1 916 917 CFG=3
M  V30 804 2 918 917
M  V30 805 1 919 916
M  V30 806 1 920 919
M  V30 807 1 921 920
M  V30 808 1 921 915
M  V30 809 1 922 917
M  V30 810 1 923 922
M  V30 811 1 924 923
M  V30 812 2 925 924
M  V30 813 1 923 926 CFG=3
M  V30 814 1 927 926
M  V30 815 1 928 927
M  V30 816 1 929 927
M  V30 817 1 930 924
M  V30 818 1 931 930 CFG=1
M  V30 819 1 932 931
M  V30 820 2 933 932
M  V30 821 1 934 931
M  V30 822 1 935 934
M  V30 823 1 934 936 CFG=1
M  V30 824 1 937 935
M  V30 825 1 938 932
M  V30 826 1 939 938
M  V30 827 1 940 939
M  V30 828 2 941 940
M  V30 829 1 942 940
M  V30 830 1 943 942
M  V30 831 1 944 943
M  V30 832 2 945 944
M  V30 833 1 943 946 CFG=3
M  V30 834 1 947 946
M  V30 835 2 948 947
M  V30 836 1 949 947
M  V30 837 1 950 948
M  V30 838 2 951 949
M  V30 839 1 952 951
M  V30 840 2 952 950
M  V30 841 1 953 952
M  V30 842 1 954 944
M  V30 843 1 955 954
M  V30 844 1 956 955
M  V30 845 2 957 956
M  V30 846 1 955 958 CFG=3
M  V30 847 1 959 958
M  V30 848 2 960 959
M  V30 849 1 961 959
M  V30 850 1 962 960
M  V30 851 2 963 961
M  V30 852 1 964 963
M  V30 853 2 964 962
M  V30 854 1 965 964
M  V30 855 1 966 956
M  V30 856 2 968 967
M  V30 857 1 970 969
M  V30 858 1 971 967
M  V30 859 2 973 972
M  V30 860 1 975 974
M  V30 861 1 976 975
M  V30 862 1 977 976
M  V30 863 1 978 977
M  V30 864 1 979 972
M  V30 865 2 981 980
M  V30 866 1 983 982
M  V30 867 1 984 983
M  V30 868 2 985 984
M  V30 869 1 986 984
M  V30 870 1 987 980
M  V30 871 2 989 988
M  V30 872 1 991 988
M  V30 873 2 993 992
M  V30 874 1 995 994
M  V30 875 1 996 995
M  V30 876 2 997 996
M  V30 877 1 998 996
M  V30 878 1 999 992
M  V30 879 2 1001 1000
M  V30 880 1 1003 1000
M  V30 881 2 1005 1004
M  V30 882 1 1006 1004
M  V30 883 2 1008 1007
M  V30 884 1 1010 1009
M  V30 885 1 1011 1010
M  V30 886 2 1012 1010
M  V30 887 1 1013 1007
M  V30 888 2 1015 1014
M  V30 889 1 1017 1016
M  V30 890 1 1018 1016
M  V30 891 1 1019 1014
M  V30 892 2 1021 1020
M  V30 893 1 1023 1022
M  V30 894 1 1024 1023
M  V30 895 1 1025 1024
M  V30 896 1 1026 1025
M  V30 897 1 1027 1020
M  V30 898 2 1029 1028
M  V30 899 1 1031 1030
M  V30 900 2 1032 1031
M  V30 901 1 1033 1031
M  V30 902 1 1034 1032
M  V30 903 2 1035 1033
M  V30 904 1 1036 1035
M  V30 905 2 1036 1034
M  V30 906 1 1037 1036
M  V30 907 1 1038 1028
M  V30 908 2 1040 1039
M  V30 909 1 1042 1039
M  V30 910 2 1044 1043
M  V30 911 1 1046 1045
M  V30 912 1 1047 1046
M  V30 913 1 1048 1047
M  V30 914 1 1049 1048
M  V30 915 1 1050 1043
M  V30 916 2 1052 1051
M  V30 917 1 1054 1053
M  V30 918 1 1055 1053
M  V30 919 1 1056 1051
M  V30 920 2 1058 1057
M  V30 921 1 1060 1059
M  V30 922 2 1061 1060
M  V30 923 1 1062 1060
M  V30 924 1 1063 1057
M  V30 925 2 1065 1064
M  V30 926 1 1066 1064
M  V30 927 2 1068 1067
M  V30 928 1 1070 1069
M  V30 929 1 1071 1069
M  V30 930 1 1072 1067
M  V30 931 2 1074 1073
M  V30 932 1 1076 1075
M  V30 933 1 1077 1076
M  V30 934 1 1078 1077
M  V30 935 1 1079 1078
M  V30 936 1 1080 1073
M  V30 937 2 1082 1081
M  V30 938 1 1084 1083
M  V30 939 1 1085 1084
M  V30 940 1 1085 1080
M  V30 941 1 1086 1081
M  V30 942 2 1088 1087
M  V30 943 1 1090 1089
M  V30 944 1 1091 1089
M  V30 945 1 1092 1087
M  V30 946 2 1094 1093
M  V30 947 1 1096 1093
M  V30 948 2 1098 1097
M  V30 949 1 1100 1099
M  V30 950 1 1101 1100
M  V30 951 2 1102 1101
M  V30 952 1 1103 1101
M  V30 953 1 1104 1097
M  V30 954 2 1106 1105
M  V30 955 1 1108 1107
M  V30 956 1 1109 1107
M  V30 957 1 1110 1105
M  V30 958 2 1112 1111
M  V30 959 1 1114 1113
M  V30 960 1 1115 1114
M  V30 961 1 1116 1115
M  V30 962 1 1117 1116
M  V30 963 1 1118 1117
M  V30 964 2 1119 1117
M  V30 965 1 1120 1111
M  V30 966 2 1122 1121
M  V30 967 1 1124 1121
M  V30 968 2 1126 1125
M  V30 969 1 1128 1127
M  V30 970 2 1129 1128
M  V30 971 1 1130 1128
M  V30 972 1 1131 1125
M  V30 973 2 1133 1132
M  V30 974 1 1135 1134
M  V30 975 1 1136 1135
M  V30 976 1 1137 1135
M  V30 977 1 1138 1132
M  V30 978 2 1140 1139
M  V30 979 1 1142 1141
M  V30 980 1 1143 1142
M  V30 981 2 1144 1143
M  V30 982 1 1145 1143
M  V30 983 1 1146 1139
M  V30 984 2 1148 1147
M  V30 985 1 1150 1149
M  V30 986 1 1151 1150
M  V30 987 1 1152 1151
M  V30 988 1 1153 1152
M  V30 989 1 1154 1147
M  V30 990 2 1156 1155
M  V30 991 1 1158 1157
M  V30 992 1 1159 1157
M  V30 993 1 1160 1158
M  V30 994 1 1161 1155
M  V30 995 2 1163 1162
M  V30 996 1 1165 1164
M  V30 997 1 1166 1165
M  V30 998 1 1167 1165
M  V30 999 1 1168 1162
M  V30 1000 2 1170 1169
M  V30 1001 1 1171 1169
M  V30 END BOND
M  V30 END CTAB
M  END
$$$$
