
     RDKit          3D

 37 40  0  0  0  0  0  0  0  0999 V2000
   44.4060   36.0480   44.7820 C   0  0  0  0  0  0  0  0  0  0  0  0
   44.9570   35.8910   43.4960 C   0  0  0  0  0  0  0  0  0  0  0  0
   45.8000   34.8240   43.2920 C   0  0  0  0  0  0  0  0  0  0  0  0
   46.0720   33.9740   44.3060 N   0  0  0  0  0  0  0  0  0  0  0  0
   45.5150   34.1620   45.5430 C   0  0  0  0  0  0  0  0  0  0  0  0
   44.6950   35.1770   45.7870 N   0  0  0  0  0  0  0  0  0  0  0  0
   45.8590   33.2030   46.5780 C   0  0  0  0  0  0  0  0  0  0  0  0
   45.0090   32.9840   47.6430 C   0  0  0  0  0  0  0  0  0  0  0  0
   45.5540   32.0370   48.4800 C   0  0  0  0  0  0  0  0  0  0  0  0
   46.7360   31.6970   47.8990 N   0  0  0  0  0  0  0  0  0  0  0  0
   46.9340   32.3790   46.7680 N   0  0  0  0  0  0  0  0  0  0  0  0
   49.0200   29.0010   48.5590 N   0  0  0  0  0  0  0  0  0  0  0  0
   47.9190   29.4760   47.9770 N   0  0  0  0  0  0  0  0  0  0  0  0
   47.7490   30.7780   48.2800 C   0  0  0  0  0  0  0  0  0  0  0  0
   48.8080   31.1390   49.1010 C   0  0  0  0  0  0  0  0  0  0  0  0
   49.5770   30.0150   49.2540 C   0  0  0  0  0  0  0  0  0  0  0  0
   47.7860   34.0520   39.5880 C   0  0  0  0  0  0  0  0  0  0  0  0
   48.3700   34.8240   40.5720 C   0  0  0  0  0  0  0  0  0  0  0  0
   47.6960   35.0600   41.7760 C   0  0  0  0  0  0  0  0  0  0  0  0
   46.4430   34.5370   42.0160 C   0  0  0  0  0  0  0  0  0  0  0  0
   45.8920   33.7720   41.0110 C   0  0  0  0  0  0  0  0  0  0  0  0
   46.5310   33.5220   39.8150 C   0  0  0  0  0  0  0  0  0  0  0  0
   48.5460   33.7020   38.0550 S   0  0  0  0  0  0  0  0  0  0  0  0
   48.2580   34.7440   37.0300 O   0  0  0  0  0  0  0  0  0  0  0  0
   47.9400   32.4060   37.5720 O   0  0  0  0  0  0  0  0  0  0  0  0
   43.7282   36.8918   44.9785 H   0  0  0  0  0  0  0  0  0  0  0  0
   44.7219   36.5956   42.6847 H   0  0  0  0  0  0  0  0  0  0  0  0
   44.0442   33.4888   47.7990 H   0  0  0  0  0  0  0  0  0  0  0  0
   45.1274   31.6419   49.4137 H   0  0  0  0  0  0  0  0  0  0  0  0
   49.3793   28.0381   48.4909 H   0  0  0  0  0  0  0  0  0  0  0  0
   48.9933   32.1299   49.5412 H   0  0  0  0  0  0  0  0  0  0  0  0
   50.5004   29.9497   49.8482 H   0  0  0  0  0  0  0  0  0  0  0  0
   49.3687   35.2554   40.4095 H   0  0  0  0  0  0  0  0  0  0  0  0
   48.1773   35.6772   42.5489 H   0  0  0  0  0  0  0  0  0  0  0  0
   44.8933   33.3395   41.1707 H   0  0  0  0  0  0  0  0  0  0  0  0
   46.0441   32.9041   39.0462 H   0  0  0  0  0  0  0  0  0  0  0  0
   49.9041   33.6472   38.2266 H   0  0  0  0  0  0  0  0  0  0  0  0
  1  6  2  0
  2  1  1  0
  3  2  2  0
  3  4  1  0
  4  5  2  0
  5  6  1  0
  5  7  1  0
  7 11  2  0
  7  8  1  0
  8  9  2  0
 10 14  1  0
 10  9  1  0
 11 10  1  0
 12 16  1  0
 13 14  2  0
 13 12  1  0
 14 15  1  0
 15 16  2  0
 17 22  2  0
 17 18  1  0
 18 19  2  0
 19 20  1  0
 20  3  1  0
 21 20  2  0
 22 21  1  0
 23 17  1  0
 24 23  2  0
 25 23  2  0
  1 26  1  0
  2 27  1  0
  8 28  1  0
  9 29  1  0
 12 30  1  0
 15 31  1  0
 16 32  1  0
 18 33  1  0
 19 34  1  0
 21 35  1  0
 22 36  1  0
 23 37  1  0
M  END
>  <Score>  (1) 
-7.2944

$$$$
