
     RDKit          3D

 51 56  0  0  1  0  0  0  0  0999 V2000
   46.5340   34.4420   41.9820 C   0  0  0  0  0  0  0  0  0  0  0  0
   44.4230   35.9270   44.7300 C   0  0  0  0  0  0  0  0  0  0  0  0
   44.9970   35.7540   43.4670 C   0  0  0  0  0  0  0  0  0  0  0  0
   45.8840   34.6900   43.2980 C   0  0  0  0  0  0  0  0  0  0  0  0
   46.1350   33.9010   44.3470 N   0  0  0  0  0  0  0  0  0  0  0  0
   45.5600   34.0980   45.5630 C   0  0  0  0  0  0  0  0  0  0  0  0
   44.7040   35.1070   45.7650 N   0  0  0  0  0  0  0  0  0  0  0  0
   45.9130   33.1670   46.6340 C   0  0  0  0  0  0  0  0  0  0  0  0
   45.0450   32.9510   47.6790 C   0  0  0  0  0  0  0  0  0  0  0  0
   45.5990   32.0440   48.5460 C   0  0  0  0  0  0  0  0  0  0  0  0
   46.7970   31.7210   48.0140 N   0  0  0  0  0  0  0  0  0  0  0  0
   46.9930   32.3860   46.8720 N   0  0  0  0  0  0  0  0  0  0  0  0
   49.1480   29.1270   48.7810 N   0  0  0  0  0  0  0  0  0  0  0  0
   48.0340   29.5340   48.1670 N   0  0  0  0  0  0  0  0  0  0  0  0
   47.8290   30.8470   48.4310 C   0  0  0  0  0  0  0  0  0  0  0  0
   48.8710   31.2540   49.2450 C   0  0  0  0  0  0  0  0  0  0  0  0
   49.6720   30.1720   49.4460 C   0  0  0  0  0  0  0  0  0  0  0  0
   47.7650   35.3130   41.9150 C   0  0  0  0  0  0  0  0  0  0  0  0
   48.9960   34.6330   41.4330 C   0  0  1  0  0  0  0  0  0  0  0  0
   50.0430   34.3370   42.4860 C   0  0  0  0  0  0  0  0  0  0  0  0
   49.3040   33.2350   41.7580 C   0  0  2  0  0  0  0  0  0  0  0  0
   50.1490   32.4160   40.9470 N   0  0  0  0  0  0  0  0  0  0  0  0
   51.2230   31.8270   41.5030 C   0  0  0  0  0  0  0  0  0  0  0  0
   51.8800   31.1000   40.5530 N   0  0  0  0  0  0  0  0  0  0  0  0
   51.1920   31.2500   39.3970 C   0  0  0  0  0  0  0  0  0  0  0  0
   51.4160   30.7320   38.1160 C   0  0  0  0  0  0  0  0  0  0  0  0
   52.3880   29.9800   37.8510 O   0  0  0  0  0  0  0  0  0  0  0  0
   50.5060   31.1030   37.1910 N   0  0  0  0  0  0  0  0  0  0  0  0
   49.4540   31.9140   37.4710 C   0  0  0  0  0  0  0  0  0  0  0  0
   48.5060   32.2880   36.4620 N   0  0  0  0  0  0  0  0  0  0  0  0
   49.2450   32.4100   38.7050 N   0  0  0  0  0  0  0  0  0  0  0  0
   50.1150   32.0730   39.6560 C   0  0  0  0  0  0  0  0  0  0  0  0
   46.8179   33.3827   41.8966 H   0  0  0  0  0  0  0  0  0  0  0  0
   45.8452   34.6792   41.1579 H   0  0  0  0  0  0  0  0  0  0  0  0
   43.7196   36.7583   44.8855 H   0  0  0  0  0  0  0  0  0  0  0  0
   44.7577   36.4330   42.6353 H   0  0  0  0  0  0  0  0  0  0  0  0
   44.0621   33.4299   47.8002 H   0  0  0  0  0  0  0  0  0  0  0  0
   45.1596   31.6604   49.4786 H   0  0  0  0  0  0  0  0  0  0  0  0
   49.5393   28.1747   48.7504 H   0  0  0  0  0  0  0  0  0  0  0  0
   49.0237   32.2638   49.6536 H   0  0  0  0  0  0  0  0  0  0  0  0
   50.5914   30.1552   50.0496 H   0  0  0  0  0  0  0  0  0  0  0  0
   47.5517   36.1520   41.2363 H   0  0  0  0  0  0  0  0  0  0  0  0
   47.9740   35.6262   42.9486 H   0  0  0  0  0  0  0  0  0  0  0  0
   48.9393   35.1671   40.4730 H   0  0  0  0  0  0  0  0  0  0  0  0
   51.1072   34.5230   42.2789 H   0  0  0  0  0  0  0  0  0  0  0  0
   50.2065   34.6170   43.5371 H   0  0  0  0  0  0  0  0  0  0  0  0
   48.6403   32.3899   41.9929 H   0  0  0  0  0  0  0  0  0  0  0  0
   51.5242   31.9171   42.5571 H   0  0  0  0  0  0  0  0  0  0  0  0
   50.6147   30.7546   36.2278 H   0  0  0  0  0  0  0  0  0  0  0  0
   47.7163   32.9048   36.7006 H   0  0  0  0  0  0  0  0  0  0  0  0
   48.6148   31.9398   35.4988 H   0  0  0  0  0  0  0  0  0  0  0  0
  1  4  1  0
  2  7  2  0
  3  2  1  0
  4  3  2  0
  4  5  1  0
  5  6  2  0
  6  7  1  0
  6  8  1  0
  8 12  2  0
  8  9  1  0
  9 10  2  0
 11 15  1  0
 11 10  1  0
 12 11  1  0
 13 17  1  0
 14 15  2  0
 14 13  1  0
 15 16  1  0
 16 17  2  0
 18  1  1  0
 19 21  1  0
 19 18  1  0
 19 20  1  0
 21 20  1  0
 22 23  1  0
 22 21  1  0
 24 23  2  0
 25 32  2  0
 25 24  1  0
 26 25  1  0
 27 26  2  0
 28 29  1  0
 28 26  1  0
 29 31  2  0
 30 29  1  0
 31 32  1  0
 32 22  1  0
  1 33  1  0
  1 34  1  0
  2 35  1  0
  3 36  1  0
  9 37  1  0
 10 38  1  0
 13 39  1  0
 16 40  1  0
 17 41  1  0
 18 42  1  0
 18 43  1  0
 19 44  1  6
 20 45  1  0
 20 46  1  0
 21 47  1  1
 23 48  1  0
 28 49  1  0
 30 50  1  0
 30 51  1  0
M  END
>  <Score>  (1) 
-7.38069

$$$$
