
     RDKit          3D

 38 41  0  0  0  0  0  0  0  0999 V2000
   46.5900   34.6670   42.1570 C   0  0  0  0  0  0  0  0  0  0  0  0
   47.7930   35.2870   41.9870 C   0  0  0  0  0  0  0  0  0  0  0  0
   48.5310   35.1670   40.7960 C   0  0  0  0  0  0  0  0  0  0  0  0
   47.9920   34.3770   39.7570 C   0  0  0  0  0  0  0  0  0  0  0  0
   46.7710   33.7470   39.9290 C   0  0  0  0  0  0  0  0  0  0  0  0
   46.1010   33.9070   41.1200 C   0  0  0  0  0  0  0  0  0  0  0  0
   44.8430   33.2510   41.2820 N   0  0  0  0  0  0  0  0  0  0  0  0
   44.6090   31.9930   41.7330 C   0  0  0  0  0  0  0  0  0  0  0  0
   43.3270   31.5190   41.8260 C   0  0  0  0  0  0  0  0  0  0  0  0
   42.2560   32.2820   41.4720 C   0  0  0  0  0  0  0  0  0  0  0  0
   41.0930   31.7970   41.5770 O   0  0  0  0  0  0  0  0  0  0  0  0
   42.5100   33.5470   41.0200 N   0  0  0  0  0  0  0  0  0  0  0  0
   43.7550   34.0100   40.9300 C   0  0  0  0  0  0  0  0  0  0  0  0
   43.8730   35.1930   40.4970 O   0  0  0  0  0  0  0  0  0  0  0  0
   41.3740   34.3160   40.6610 C   0  0  0  0  0  0  0  0  0  0  0  0
   41.3250   35.6490   41.0110 C   0  0  0  0  0  0  0  0  0  0  0  0
   40.1170   36.1640   40.5440 C   0  0  0  0  0  0  0  0  0  0  0  0
   39.4760   35.1310   39.9290 N   0  0  0  0  0  0  0  0  0  0  0  0
   40.2240   34.0400   40.0010 N   0  0  0  0  0  0  0  0  0  0  0  0
   44.4530   35.9690   44.9890 C   0  0  0  0  0  0  0  0  0  0  0  0
   45.0580   35.8930   43.7300 C   0  0  0  0  0  0  0  0  0  0  0  0
   45.9020   34.8550   43.4320 C   0  0  0  0  0  0  0  0  0  0  0  0
   46.1330   33.9040   44.4020 N   0  0  0  0  0  0  0  0  0  0  0  0
   45.5310   34.0000   45.6240 C   0  0  0  0  0  0  0  0  0  0  0  0
   44.7050   35.0180   45.9120 N   0  0  0  0  0  0  0  0  0  0  0  0
   45.8320   32.9880   46.5300 O   0  0  0  0  0  0  0  0  0  0  0  0
   48.1981   35.8993   42.8062 H   0  0  0  0  0  0  0  0  0  0  0  0
   49.5000   35.6738   40.6772 H   0  0  0  0  0  0  0  0  0  0  0  0
   48.5420   34.2621   38.8113 H   0  0  0  0  0  0  0  0  0  0  0  0
   46.3435   33.1284   39.1262 H   0  0  0  0  0  0  0  0  0  0  0  0
   45.4527   31.3506   42.0254 H   0  0  0  0  0  0  0  0  0  0  0  0
   43.1586   30.4968   42.1958 H   0  0  0  0  0  0  0  0  0  0  0  0
   42.0993   36.2053   41.5596 H   0  0  0  0  0  0  0  0  0  0  0  0
   39.7541   37.1969   40.6506 H   0  0  0  0  0  0  0  0  0  0  0  0
   38.5520   35.1893   39.4776 H   0  0  0  0  0  0  0  0  0  0  0  0
   43.7740   36.8015   45.2256 H   0  0  0  0  0  0  0  0  0  0  0  0
   44.8557   36.6687   42.9768 H   0  0  0  0  0  0  0  0  0  0  0  0
   45.4292   32.9972   47.4343 H   0  0  0  0  0  0  0  0  0  0  0  0
  1 22  1  0
  2  1  2  0
  3  2  1  0
  4  5  1  0
  4  3  2  0
  5  6  2  0
  6  7  1  0
  6  1  1  0
  7  8  1  0
  8  9  2  0
 10 11  2  0
 10  9  1  0
 12 10  1  0
 13 12  1  0
 13  7  1  0
 14 13  2  0
 15 16  1  0
 15 12  1  0
 17 16  2  0
 18 19  1  0
 18 17  1  0
 19 15  2  0
 20 25  2  0
 21 20  1  0
 22 21  2  0
 22 23  1  0
 23 24  2  0
 24 25  1  0
 24 26  1  0
  2 27  1  0
  3 28  1  0
  4 29  1  0
  5 30  1  0
  8 31  1  0
  9 32  1  0
 16 33  1  0
 17 34  1  0
 18 35  1  0
 20 36  1  0
 21 37  1  0
 26 38  1  0
M  END
>  <Score>  (1) 
-7.85085

$$$$
