
     RDKit          3D

 49 53  0  0  0  0  0  0  0  0999 V2000
   46.1020   31.9300   47.2570 C   0  0  0  0  0  0  0  0  0  0  0  0
   44.5260   35.0300   46.1740 C   0  0  0  0  0  0  0  0  0  0  0  0
   44.7600   35.0430   44.7920 C   0  0  0  0  0  0  0  0  0  0  0  0
   45.4740   33.9680   44.2140 C   0  0  0  0  0  0  0  0  0  0  0  0
   45.8890   32.9870   45.0300 N   0  0  0  0  0  0  0  0  0  0  0  0
   45.6400   33.0140   46.3720 C   0  0  0  0  0  0  0  0  0  0  0  0
   44.9670   34.0270   46.9280 N   0  0  0  0  0  0  0  0  0  0  0  0
   45.6810   34.0280   42.8260 N   0  0  0  0  0  0  0  0  0  0  0  0
   44.9100   33.8710   41.7400 C   0  0  0  0  0  0  0  0  0  0  0  0
   45.6430   34.0430   40.6230 N   0  0  0  0  0  0  0  0  0  0  0  0
   46.9020   34.3140   40.9790 C   0  0  0  0  0  0  0  0  0  0  0  0
   48.0310   34.5700   40.2280 C   0  0  0  0  0  0  0  0  0  0  0  0
   48.0270   34.5820   38.9890 O   0  0  0  0  0  0  0  0  0  0  0  0
   49.2080   34.8210   40.8190 N   0  0  0  0  0  0  0  0  0  0  0  0
   49.2090   34.8060   42.1700 C   0  0  0  0  0  0  0  0  0  0  0  0
   50.3860   35.0540   42.9490 N   0  0  0  0  0  0  0  0  0  0  0  0
   48.1380   34.5640   42.9140 N   0  0  0  0  0  0  0  0  0  0  0  0
   46.9240   34.3050   42.3650 C   0  0  0  0  0  0  0  0  0  0  0  0
   47.2680   32.3910   48.1110 C   0  0  0  0  0  0  0  0  0  0  0  0
   45.0110   31.4240   48.1710 C   0  0  0  0  0  0  0  0  0  0  0  0
   46.6040   30.8090   46.3670 C   0  0  0  0  0  0  0  0  0  0  0  0
   45.9100   29.5160   46.6730 C   0  0  0  0  0  0  0  0  0  0  0  0
   46.4800   28.6200   47.5080 C   0  0  0  0  0  0  0  0  0  0  0  0
   45.3330   27.2070   47.6110 S   0  0  0  0  0  0  0  0  0  0  0  0
   44.1710   28.1070   46.4230 C   0  0  0  0  0  0  0  0  0  0  0  0
   44.7610   29.1020   46.2210 N   0  0  0  0  0  0  0  0  0  0  0  0
   42.8690   27.7400   45.8550 N   0  0  0  0  0  0  0  0  0  0  0  0
   42.2670   26.5840   46.0710 N   0  0  0  0  0  0  0  0  0  0  0  0
   41.0900   26.5560   45.4100 C   0  0  0  0  0  0  0  0  0  0  0  0
   41.0510   27.7920   44.7880 C   0  0  0  0  0  0  0  0  0  0  0  0
   42.1690   28.5520   45.0600 C   0  0  0  0  0  0  0  0  0  0  0  0
   43.9718   35.8581   46.6399 H   0  0  0  0  0  0  0  0  0  0  0  0
   44.3953   35.8732   44.1693 H   0  0  0  0  0  0  0  0  0  0  0  0
   43.8356   33.6360   41.7586 H   0  0  0  0  0  0  0  0  0  0  0  0
   50.0612   35.0139   40.2751 H   0  0  0  0  0  0  0  0  0  0  0  0
   50.3370   35.0317   43.9776 H   0  0  0  0  0  0  0  0  0  0  0  0
   51.2810   35.2545   42.4803 H   0  0  0  0  0  0  0  0  0  0  0  0
   47.0069   32.2878   49.1746 H   0  0  0  0  0  0  0  0  0  0  0  0
   48.1515   31.7745   47.8888 H   0  0  0  0  0  0  0  0  0  0  0  0
   47.4911   33.4450   47.8888 H   0  0  0  0  0  0  0  0  0  0  0  0
   45.3155   31.5652   49.2186 H   0  0  0  0  0  0  0  0  0  0  0  0
   44.0836   31.9839   47.9800 H   0  0  0  0  0  0  0  0  0  0  0  0
   44.8394   30.3544   47.9800 H   0  0  0  0  0  0  0  0  0  0  0  0
   47.6849   30.6817   46.5268 H   0  0  0  0  0  0  0  0  0  0  0  0
   46.3932   31.0763   45.3210 H   0  0  0  0  0  0  0  0  0  0  0  0
   47.4460   28.7228   48.0241 H   0  0  0  0  0  0  0  0  0  0  0  0
   40.3442   25.7482   45.3744 H   0  0  0  0  0  0  0  0  0  0  0  0
   40.2218   28.1298   44.1489 H   0  0  0  0  0  0  0  0  0  0  0  0
   42.4191   29.5651   44.7119 H   0  0  0  0  0  0  0  0  0  0  0  0
  1 19  1  0
  1 20  1  0
  2  7  2  0
  3  2  1  0
  4  3  2  0
  4  5  1  0
  5  6  2  0
  6  7  1  0
  6  1  1  0
  8  4  1  0
  9  8  1  0
 10 11  1  0
 10  9  2  0
 11 18  2  0
 12 14  1  0
 12 11  1  0
 13 12  2  0
 14 15  1  0
 15 17  2  0
 15 16  1  0
 18  8  1  0
 18 17  1  0
 21 22  1  0
 21  1  1  0
 22 23  2  0
 23 24  1  0
 25 24  1  0
 26 25  2  0
 26 22  1  0
 27 28  1  0
 27 25  1  0
 29 28  2  0
 30 31  2  0
 30 29  1  0
 31 27  1  0
  2 32  1  0
  3 33  1  0
  9 34  1  0
 14 35  1  0
 16 36  1  0
 16 37  1  0
 19 38  1  0
 19 39  1  0
 19 40  1  0
 20 41  1  0
 20 42  1  0
 20 43  1  0
 21 44  1  0
 21 45  1  0
 23 46  1  0
 29 47  1  0
 30 48  1  0
 31 49  1  0
M  END
>  <Score>  (1) 
-7.52441

$$$$
