
     RDKit          3D

 54 59  0  0  1  0  0  0  0  0999 V2000
   47.2490   34.9480   41.8900 C   0  0  0  0  0  0  0  0  0  0  0  0
   48.4970   35.5710   41.8040 C   0  0  0  0  0  0  0  0  0  0  0  0
   49.0180   35.3560   40.5900 N   0  0  0  0  0  0  0  0  0  0  0  0
   48.1310   34.6100   39.8980 C   0  0  0  0  0  0  0  0  0  0  0  0
   48.1980   34.1300   38.6120 C   0  0  0  0  0  0  0  0  0  0  0  0
   47.1480   33.3890   38.1440 C   0  0  0  0  0  0  0  0  0  0  0  0
   46.0070   33.0860   38.8910 C   0  0  0  0  0  0  0  0  0  0  0  0
   46.0210   33.6060   40.1690 C   0  0  0  0  0  0  0  0  0  0  0  0
   47.0190   34.3410   40.6870 C   0  0  0  0  0  0  0  0  0  0  0  0
   44.8130   33.2320   40.8700 N   0  0  0  0  0  0  0  0  0  0  0  0
   43.4450   33.6730   41.0510 C   0  0  0  0  0  0  0  0  0  0  0  0
   42.7290   32.4610   41.6120 C   0  0  0  0  0  0  0  0  0  0  0  0
   43.8070   31.9600   42.5600 C   0  0  0  0  0  0  0  0  0  0  0  0
   45.0170   32.0040   41.6540 C   0  0  1  0  0  0  0  0  0  0  0  0
   45.1380   30.7910   40.8580 C   0  0  0  0  0  0  0  0  0  0  0  0
   44.3020   30.2950   40.0890 O   0  0  0  0  0  0  0  0  0  0  0  0
   44.5400   35.8740   44.2590 C   0  0  0  0  0  0  0  0  0  0  0  0
   45.3540   35.9120   43.1360 C   0  0  0  0  0  0  0  0  0  0  0  0
   46.3720   34.9580   43.0360 C   0  0  0  0  0  0  0  0  0  0  0  0
   46.4460   34.0910   44.0690 N   0  0  0  0  0  0  0  0  0  0  0  0
   45.6730   34.0480   45.1460 C   0  0  0  0  0  0  0  0  0  0  0  0
   44.7110   34.9600   45.2250 N   0  0  0  0  0  0  0  0  0  0  0  0
   46.0660   32.9640   46.0400 C   0  0  0  0  0  0  0  0  0  0  0  0
   45.6860   32.8970   47.3420 C   0  0  0  0  0  0  0  0  0  0  0  0
   46.0340   31.8960   48.2150 C   0  0  0  0  0  0  0  0  0  0  0  0
   46.8280   30.8540   47.7930 C   0  0  0  0  0  0  0  0  0  0  0  0
   47.2460   30.8640   46.4890 C   0  0  0  0  0  0  0  0  0  0  0  0
   48.0420   29.8190   46.0720 C   0  0  0  0  0  0  0  0  0  0  0  0
   48.4980   29.7650   44.7710 C   0  0  0  0  0  0  0  0  0  0  0  0
   48.1270   30.7990   43.9080 C   0  0  0  0  0  0  0  0  0  0  0  0
   47.3290   31.8160   44.3850 C   0  0  0  0  0  0  0  0  0  0  0  0
   46.8580   31.9000   45.6730 C   0  0  0  0  0  0  0  0  0  0  0  0
   48.9764   36.1480   42.6085 H   0  0  0  0  0  0  0  0  0  0  0  0
   49.9275   35.6968   40.2472 H   0  0  0  0  0  0  0  0  0  0  0  0
   49.0720   34.3361   37.9766 H   0  0  0  0  0  0  0  0  0  0  0  0
   47.2056   33.0073   37.1139 H   0  0  0  0  0  0  0  0  0  0  0  0
   45.1730   32.4872   38.4961 H   0  0  0  0  0  0  0  0  0  0  0  0
   43.3977   34.5146   41.7577 H   0  0  0  0  0  0  0  0  0  0  0  0
   42.9926   34.0308   40.1144 H   0  0  0  0  0  0  0  0  0  0  0  0
   41.8076   32.7375   42.1455 H   0  0  0  0  0  0  0  0  0  0  0  0
   42.3814   31.7315   40.8657 H   0  0  0  0  0  0  0  0  0  0  0  0
   43.9255   32.6257   43.4276 H   0  0  0  0  0  0  0  0  0  0  0  0
   43.6036   30.9742   43.0037 H   0  0  0  0  0  0  0  0  0  0  0  0
   45.9757   32.0349   42.1924 H   0  0  0  0  0  0  0  0  0  0  0  0
   46.0896   30.2471   40.9506 H   0  0  0  0  0  0  0  0  0  0  0  0
   43.7323   36.6139   44.3596 H   0  0  0  0  0  0  0  0  0  0  0  0
   45.2037   36.6672   42.3505 H   0  0  0  0  0  0  0  0  0  0  0  0
   45.0500   33.7076   47.7272 H   0  0  0  0  0  0  0  0  0  0  0  0
   45.6771   31.9269   49.2550 H   0  0  0  0  0  0  0  0  0  0  0  0
   47.1162   30.0430   48.4780 H   0  0  0  0  0  0  0  0  0  0  0  0
   48.3153   29.0233   46.7806 H   0  0  0  0  0  0  0  0  0  0  0  0
   49.1324   28.9357   44.4249 H   0  0  0  0  0  0  0  0  0  0  0  0
   48.4673   30.8013   42.8620 H   0  0  0  0  0  0  0  0  0  0  0  0
   47.0493   32.6173   43.6852 H   0  0  0  0  0  0  0  0  0  0  0  0
  1 19  1  0
  2  1  2  0
  3  2  1  0
  4  3  1  0
  4  9  2  0
  5  4  1  0
  6  5  2  0
  6  7  1  0
  7  8  2  0
  8  9  1  0
  8 10  1  0
  9  1  1  0
 10 11  1  0
 10 14  1  0
 11 12  1  0
 12 13  1  0
 14 13  1  0
 15 14  1  0
 16 15  2  0
 17 22  2  0
 18 17  1  0
 19 18  2  0
 19 20  1  0
 20 21  2  0
 21 22  1  0
 21 23  1  0
 23 24  2  0
 24 25  1  0
 26 25  2  0
 27 26  1  0
 28 27  2  0
 29 28  1  0
 30 31  1  0
 30 29  2  0
 31 32  2  0
 32 23  1  0
 32 27  1  0
  2 33  1  0
  3 34  1  0
  5 35  1  0
  6 36  1  0
  7 37  1  0
 11 38  1  0
 11 39  1  0
 12 40  1  0
 12 41  1  0
 13 42  1  0
 13 43  1  0
 14 44  1  1
 15 45  1  0
 17 46  1  0
 18 47  1  0
 24 48  1  0
 25 49  1  0
 26 50  1  0
 28 51  1  0
 29 52  1  0
 30 53  1  0
 31 54  1  0
M  END
>  <Score>  (1) 
-7.64865

$$$$
