
     RDKit          3D

 38 41  0  0  0  0  0  0  0  0999 V2000
   44.5680   35.8850   44.4050 C   0  0  0  0  0  0  0  0  0  0  0  0
   45.3680   35.8550   43.2310 C   0  0  0  0  0  0  0  0  0  0  0  0
   46.3400   34.8740   43.1430 C   0  0  0  0  0  0  0  0  0  0  0  0
   46.4770   33.9960   44.1780 N   0  0  0  0  0  0  0  0  0  0  0  0
   45.7060   34.0500   45.2710 C   0  0  0  0  0  0  0  0  0  0  0  0
   44.7500   34.9830   45.4040 N   0  0  0  0  0  0  0  0  0  0  0  0
   45.8900   33.1060   46.3300 N   0  0  0  0  0  0  0  0  0  0  0  0
   46.9060   32.0690   46.2540 C   0  0  0  0  0  0  0  0  0  0  0  0
   46.1710   30.7350   46.3080 C   0  0  0  0  0  0  0  0  0  0  0  0
   45.3960   30.6840   47.5960 C   0  0  0  0  0  0  0  0  0  0  0  0
   45.4620   31.9600   48.3840 C   0  0  0  0  0  0  0  0  0  0  0  0
   45.0630   33.1510   47.5210 C   0  0  0  0  0  0  0  0  0  0  0  0
   47.1250   34.8650   41.9660 N   0  0  0  0  0  0  0  0  0  0  0  0
   48.3090   35.5090   41.8750 C   0  0  0  0  0  0  0  0  0  0  0  0
   48.8080   35.3090   40.6230 N   0  0  0  0  0  0  0  0  0  0  0  0
   47.9400   34.5460   39.9390 C   0  0  0  0  0  0  0  0  0  0  0  0
   47.9870   34.0680   38.6370 C   0  0  0  0  0  0  0  0  0  0  0  0
   46.9270   33.3090   38.2460 N   0  0  0  0  0  0  0  0  0  0  0  0
   45.9010   33.0390   39.0640 C   0  0  0  0  0  0  0  0  0  0  0  0
   45.8690   33.5180   40.3460 N   0  0  0  0  0  0  0  0  0  0  0  0
   46.8840   34.2670   40.7780 C   0  0  0  0  0  0  0  0  0  0  0  0
   49.0850   34.3610   37.7720 N   0  0  0  0  0  0  0  0  0  0  0  0
   43.7869   36.6529   44.5066 H   0  0  0  0  0  0  0  0  0  0  0  0
   45.2200   36.5850   42.4216 H   0  0  0  0  0  0  0  0  0  0  0  0
   47.6001   32.1546   47.1031 H   0  0  0  0  0  0  0  0  0  0  0  0
   47.4970   32.1594   45.3306 H   0  0  0  0  0  0  0  0  0  0  0  0
   45.4822   30.6533   45.4542 H   0  0  0  0  0  0  0  0  0  0  0  0
   46.8872   29.9015   46.2593 H   0  0  0  0  0  0  0  0  0  0  0  0
   44.3422   30.4741   47.3605 H   0  0  0  0  0  0  0  0  0  0  0  0
   45.8491   29.8964   48.2160 H   0  0  0  0  0  0  0  0  0  0  0  0
   44.7763   31.8902   49.2413 H   0  0  0  0  0  0  0  0  0  0  0  0
   46.4955   32.1068   48.7309 H   0  0  0  0  0  0  0  0  0  0  0  0
   45.2381   34.0894   48.0676 H   0  0  0  0  0  0  0  0  0  0  0  0
   43.9953   33.1073   47.2601 H   0  0  0  0  0  0  0  0  0  0  0  0
   48.7878   36.0941   42.6740 H   0  0  0  0  0  0  0  0  0  0  0  0
   45.0681   32.4204   38.6984 H   0  0  0  0  0  0  0  0  0  0  0  0
   49.0949   33.9936   36.8098 H   0  0  0  0  0  0  0  0  0  0  0  0
   49.8670   34.9398   38.1103 H   0  0  0  0  0  0  0  0  0  0  0  0
  1  6  2  0
  2  1  1  0
  3  2  2  0
  3  4  1  0
  4  5  2  0
  5  6  1  0
  5  7  1  0
  7 12  1  0
  8  9  1  0
  8  7  1  0
  9 10  1  0
 10 11  1  0
 12 11  1  0
 13  3  1  0
 14 13  1  0
 15 14  2  0
 16 15  1  0
 16 21  2  0
 17 16  1  0
 18 17  2  0
 18 19  1  0
 19 20  2  0
 20 21  1  0
 21 13  1  0
 22 17  1  0
  1 23  1  0
  2 24  1  0
  8 25  1  0
  8 26  1  0
  9 27  1  0
  9 28  1  0
 10 29  1  0
 10 30  1  0
 11 31  1  0
 11 32  1  0
 12 33  1  0
 12 34  1  0
 14 35  1  0
 19 36  1  0
 22 37  1  0
 22 38  1  0
M  END
>  <Score>  (1) 
-7.19296

$$$$
