
     RDKit          3D

 52 57  0  0  1  0  0  0  0  0999 V2000
   47.2690   34.9510   41.8800 C   0  0  0  0  0  0  0  0  0  0  0  0
   48.5030   35.5980   41.7880 C   0  0  0  0  0  0  0  0  0  0  0  0
   49.0080   35.3870   40.5750 N   0  0  0  0  0  0  0  0  0  0  0  0
   48.1320   34.6250   39.8890 C   0  0  0  0  0  0  0  0  0  0  0  0
   48.1850   34.1380   38.6040 C   0  0  0  0  0  0  0  0  0  0  0  0
   47.1550   33.3850   38.1470 C   0  0  0  0  0  0  0  0  0  0  0  0
   46.0290   33.0640   38.9010 C   0  0  0  0  0  0  0  0  0  0  0  0
   46.0430   33.5870   40.1800 C   0  0  0  0  0  0  0  0  0  0  0  0
   47.0260   34.3370   40.6930 C   0  0  0  0  0  0  0  0  0  0  0  0
   44.8470   33.1980   40.8920 N   0  0  0  0  0  0  0  0  0  0  0  0
   43.4820   33.6090   41.0830 C   0  0  0  0  0  0  0  0  0  0  0  0
   42.7820   32.4000   41.6540 C   0  0  0  0  0  0  0  0  0  0  0  0
   43.8740   31.9130   42.6050 C   0  0  0  0  0  0  0  0  0  0  0  0
   45.0690   31.9790   41.6900 C   0  0  1  0  0  0  0  0  0  0  0  0
   45.2030   30.7670   40.8840 C   0  0  0  0  0  0  0  0  0  0  0  0
   44.3710   30.2490   40.1350 O   0  0  0  0  0  0  0  0  0  0  0  0
   44.5680   35.9150   44.2760 C   0  0  0  0  0  0  0  0  0  0  0  0
   45.3920   35.9360   43.1560 C   0  0  0  0  0  0  0  0  0  0  0  0
   46.4040   34.9470   43.0410 C   0  0  0  0  0  0  0  0  0  0  0  0
   46.4740   34.0570   44.0580 N   0  0  0  0  0  0  0  0  0  0  0  0
   45.6800   34.0480   45.1270 C   0  0  0  0  0  0  0  0  0  0  0  0
   44.7260   34.9760   45.2390 N   0  0  0  0  0  0  0  0  0  0  0  0
   45.8870   33.0140   46.1390 C   0  0  0  0  0  0  0  0  0  0  0  0
   45.3680   33.0850   47.4200 C   0  0  0  0  0  0  0  0  0  0  0  0
   45.7480   31.9760   48.0850 N   0  0  0  0  0  0  0  0  0  0  0  0
   46.4910   31.2040   47.2700 C   0  0  0  0  0  0  0  0  0  0  0  0
   47.1150   29.9920   47.4360 C   0  0  0  0  0  0  0  0  0  0  0  0
   47.8260   29.4230   46.3990 C   0  0  0  0  0  0  0  0  0  0  0  0
   47.9390   30.0450   45.1530 C   0  0  0  0  0  0  0  0  0  0  0  0
   47.3060   31.2800   44.9740 C   0  0  0  0  0  0  0  0  0  0  0  0
   46.5970   31.8360   46.0260 C   0  0  0  0  0  0  0  0  0  0  0  0
   48.9793   36.1854   42.5868 H   0  0  0  0  0  0  0  0  0  0  0  0
   49.9082   35.7426   40.2226 H   0  0  0  0  0  0  0  0  0  0  0  0
   49.0485   34.3559   37.9583 H   0  0  0  0  0  0  0  0  0  0  0  0
   47.2119   33.0038   37.1167 H   0  0  0  0  0  0  0  0  0  0  0  0
   45.2030   32.4496   38.5134 H   0  0  0  0  0  0  0  0  0  0  0  0
   43.4280   34.4538   41.7855 H   0  0  0  0  0  0  0  0  0  0  0  0
   43.0190   33.9475   40.1444 H   0  0  0  0  0  0  0  0  0  0  0  0
   41.8608   32.6725   42.1899 H   0  0  0  0  0  0  0  0  0  0  0  0
   42.4371   31.6620   40.9147 H   0  0  0  0  0  0  0  0  0  0  0  0
   43.9870   32.5802   43.4722 H   0  0  0  0  0  0  0  0  0  0  0  0
   43.6896   30.9261   43.0545 H   0  0  0  0  0  0  0  0  0  0  0  0
   46.0237   32.0304   42.2339 H   0  0  0  0  0  0  0  0  0  0  0  0
   46.1713   30.2498   40.9545 H   0  0  0  0  0  0  0  0  0  0  0  0
   43.7767   36.6718   44.3812 H   0  0  0  0  0  0  0  0  0  0  0  0
   45.2626   36.7016   42.3768 H   0  0  0  0  0  0  0  0  0  0  0  0
   44.7534   33.9028   47.8243 H   0  0  0  0  0  0  0  0  0  0  0  0
   45.5080   31.7543   49.0618 H   0  0  0  0  0  0  0  0  0  0  0  0
   47.0476   29.4710   48.4024 H   0  0  0  0  0  0  0  0  0  0  0  0
   48.3178   28.4520   46.5580 H   0  0  0  0  0  0  0  0  0  0  0  0
   48.5090   29.5775   44.3366 H   0  0  0  0  0  0  0  0  0  0  0  0
   47.3707   31.8034   44.0087 H   0  0  0  0  0  0  0  0  0  0  0  0
  1 19  1  0
  2  1  2  0
  3  2  1  0
  4  3  1  0
  4  9  2  0
  5  4  1  0
  6  5  2  0
  6  7  1  0
  7  8  2  0
  8  9  1  0
  8 10  1  0
  9  1  1  0
 10 11  1  0
 10 14  1  0
 11 12  1  0
 12 13  1  0
 14 13  1  0
 15 14  1  0
 16 15  2  0
 17 22  2  0
 18 17  1  0
 19 18  2  0
 19 20  1  0
 20 21  2  0
 21 22  1  0
 21 23  1  0
 23 24  2  0
 24 25  1  0
 26 27  2  0
 26 25  1  0
 28 27  1  0
 29 28  2  0
 30 29  1  0
 30 31  2  0
 31 23  1  0
 31 26  1  0
  2 32  1  0
  3 33  1  0
  5 34  1  0
  6 35  1  0
  7 36  1  0
 11 37  1  0
 11 38  1  0
 12 39  1  0
 12 40  1  0
 13 41  1  0
 13 42  1  0
 14 43  1  1
 15 44  1  0
 17 45  1  0
 18 46  1  0
 24 47  1  0
 25 48  1  0
 27 49  1  0
 28 50  1  0
 29 51  1  0
 30 52  1  0
M  END
>  <Score>  (1) 
-7.32833

$$$$
