
     RDKit          3D

 52 57  0  0  1  0  0  0  0  0999 V2000
   46.6730   33.2690   44.8020 C   0  0  2  0  0  0  0  0  0  0  0  0
   45.2670   33.8470   44.9530 C   0  0  0  0  0  0  0  0  0  0  0  0
   44.9440   34.9470   44.0710 C   0  0  0  0  0  0  0  0  0  0  0  0
   45.9070   35.4700   43.1020 C   0  0  0  0  0  0  0  0  0  0  0  0
   47.2170   34.7950   43.0520 C   0  0  1  0  0  0  0  0  0  0  0  0
   47.1630   33.3710   43.4000 C   0  0  0  0  0  0  0  0  0  0  0  0
   46.7220   31.7120   46.7350 C   0  0  0  0  0  0  0  0  0  0  0  0
   46.6690   31.8910   45.3530 C   0  0  0  0  0  0  0  0  0  0  0  0
   46.6290   30.7310   44.5110 C   0  0  0  0  0  0  0  0  0  0  0  0
   46.6450   29.5130   45.1170 N   0  0  0  0  0  0  0  0  0  0  0  0
   46.6950   29.3810   46.4460 C   0  0  0  0  0  0  0  0  0  0  0  0
   46.7340   30.4580   47.2450 N   0  0  0  0  0  0  0  0  0  0  0  0
   46.7090   28.0780   47.0150 N   0  0  0  0  0  0  0  0  0  0  0  0
   47.7240   27.4320   47.6100 C   0  0  0  0  0  0  0  0  0  0  0  0
   47.3130   26.1950   48.0180 N   0  0  0  0  0  0  0  0  0  0  0  0
   46.0320   26.0250   47.6940 C   0  0  0  0  0  0  0  0  0  0  0  0
   45.0350   25.0800   47.7940 C   0  0  0  0  0  0  0  0  0  0  0  0
   45.3450   23.9990   48.3590 O   0  0  0  0  0  0  0  0  0  0  0  0
   43.7840   25.2710   47.3230 N   0  0  0  0  0  0  0  0  0  0  0  0
   43.4750   26.4370   46.7210 C   0  0  0  0  0  0  0  0  0  0  0  0
   42.1980   26.7700   46.1810 N   0  0  0  0  0  0  0  0  0  0  0  0
   44.4250   27.3600   46.6160 N   0  0  0  0  0  0  0  0  0  0  0  0
   45.6840   27.2090   47.0730 C   0  0  0  0  0  0  0  0  0  0  0  0
   47.7790   34.9070   41.6860 C   0  0  0  0  0  0  0  0  0  0  0  0
   48.8610   35.6950   41.2910 C   0  0  0  0  0  0  0  0  0  0  0  0
   48.9800   35.4520   39.9810 N   0  0  0  0  0  0  0  0  0  0  0  0
   48.0610   34.5750   39.5260 C   0  0  0  0  0  0  0  0  0  0  0  0
   47.8860   34.0930   38.2310 C   0  0  0  0  0  0  0  0  0  0  0  0
   46.8490   33.2010   38.0960 C   0  0  0  0  0  0  0  0  0  0  0  0
   46.0190   32.7850   39.1210 C   0  0  0  0  0  0  0  0  0  0  0  0
   46.2820   33.3280   40.3690 C   0  0  0  0  0  0  0  0  0  0  0  0
   47.2880   34.2270   40.6320 C   0  0  0  0  0  0  0  0  0  0  0  0
   47.4002   33.8587   45.3795 H   0  0  0  0  0  0  0  0  0  0  0  0
   44.5470   33.4523   45.6850 H   0  0  0  0  0  0  0  0  0  0  0  0
   43.9450   35.4036   44.1307 H   0  0  0  0  0  0  0  0  0  0  0  0
   45.4524   35.3935   42.1033 H   0  0  0  0  0  0  0  0  0  0  0  0
   46.1200   36.4991   43.4270 H   0  0  0  0  0  0  0  0  0  0  0  0
   47.8454   35.2985   43.8014 H   0  0  0  0  0  0  0  0  0  0  0  0
   46.4741   32.8451   42.7226 H   0  0  0  0  0  0  0  0  0  0  0  0
   48.1579   32.9116   43.3039 H   0  0  0  0  0  0  0  0  0  0  0  0
   46.7538   32.5833   47.4057 H   0  0  0  0  0  0  0  0  0  0  0  0
   46.5869   30.8225   43.4156 H   0  0  0  0  0  0  0  0  0  0  0  0
   48.7367   27.8385   47.7485 H   0  0  0  0  0  0  0  0  0  0  0  0
   43.0726   24.5329   47.4227 H   0  0  0  0  0  0  0  0  0  0  0  0
   42.0500   27.6874   45.7368 H   0  0  0  0  0  0  0  0  0  0  0  0
   41.4235   26.0931   46.2351 H   0  0  0  0  0  0  0  0  0  0  0  0
   49.4748   36.3624   41.9137 H   0  0  0  0  0  0  0  0  0  0  0  0
   49.6967   35.8879   39.3833 H   0  0  0  0  0  0  0  0  0  0  0  0
   48.5231   34.3999   37.3885 H   0  0  0  0  0  0  0  0  0  0  0  0
   46.6649   32.7855   37.0943 H   0  0  0  0  0  0  0  0  0  0  0  0
   45.2012   32.0680   38.9562 H   0  0  0  0  0  0  0  0  0  0  0  0
   45.6409   33.0178   41.2073 H   0  0  0  0  0  0  0  0  0  0  0  0
  1  2  1  0
  1  8  1  0
  3  2  2  0
  4  3  1  0
  5  4  1  0
  5  6  1  0
  6  1  1  0
  7 12  2  0
  8  7  1  0
  9 10  1  0
  9  8  2  0
 10 11  2  0
 11 13  1  0
 11 12  1  0
 13 23  1  0
 13 14  1  0
 14 15  2  0
 16 17  1  0
 16 15  1  0
 17 18  2  0
 19 17  1  0
 20 19  1  0
 21 20  1  0
 22 20  2  0
 22 23  1  0
 23 16  2  0
 24  5  1  0
 25 24  2  0
 26 25  1  0
 27 26  1  0
 27 32  2  0
 28 27  1  0
 29 28  2  0
 29 30  1  0
 30 31  2  0
 31 32  1  0
 32 24  1  0
  1 33  1  1
  2 34  1  0
  3 35  1  0
  4 36  1  0
  4 37  1  0
  5 38  1  1
  6 39  1  0
  6 40  1  0
  7 41  1  0
  9 42  1  0
 14 43  1  0
 19 44  1  0
 21 45  1  0
 21 46  1  0
 25 47  1  0
 26 48  1  0
 28 49  1  0
 29 50  1  0
 30 51  1  0
 31 52  1  0
M  END
>  <Score>  (1) 
-7.45355

$$$$
