
     RDKit          3D

 44 48  0  0  0  0  0  0  0  0999 V2000
   44.8550   35.4750   45.2410 C   0  0  0  0  0  0  0  0  0  0  0  0
   44.1210   35.6510   44.0410 C   0  0  0  0  0  0  0  0  0  0  0  0
   44.2000   34.6580   43.0960 C   0  0  0  0  0  0  0  0  0  0  0  0
   44.9460   33.5520   43.2960 N   0  0  0  0  0  0  0  0  0  0  0  0
   45.6590   33.3920   44.4720 C   0  0  0  0  0  0  0  0  0  0  0  0
   45.5940   34.3630   45.4210 N   0  0  0  0  0  0  0  0  0  0  0  0
   46.4590   32.2120   44.6960 C   0  0  0  0  0  0  0  0  0  0  0  0
   47.0760   31.4280   43.7320 C   0  0  0  0  0  0  0  0  0  0  0  0
   47.7440   30.3980   44.3330 N   0  0  0  0  0  0  0  0  0  0  0  0
   47.5240   30.5670   45.6790 C   0  0  0  0  0  0  0  0  0  0  0  0
   46.7530   31.6580   45.8870 N   0  0  0  0  0  0  0  0  0  0  0  0
   48.0690   29.6770   46.6460 N   0  0  0  0  0  0  0  0  0  0  0  0
   48.1920   28.3180   46.7090 C   0  0  0  0  0  0  0  0  0  0  0  0
   48.8020   28.0120   47.8870 N   0  0  0  0  0  0  0  0  0  0  0  0
   49.0630   29.1270   48.5590 C   0  0  0  0  0  0  0  0  0  0  0  0
   49.6580   29.3780   49.7820 C   0  0  0  0  0  0  0  0  0  0  0  0
   49.8120   30.6400   50.2630 N   0  0  0  0  0  0  0  0  0  0  0  0
   49.3540   31.6580   49.4850 C   0  0  0  0  0  0  0  0  0  0  0  0
   48.7710   31.4460   48.2910 N   0  0  0  0  0  0  0  0  0  0  0  0
   48.6020   30.1920   47.7810 C   0  0  0  0  0  0  0  0  0  0  0  0
   46.3080   32.1610   47.1620 C   0  0  0  0  0  0  0  0  0  0  0  0
   46.2980   31.1650   48.1570 F   0  0  0  0  0  0  0  0  0  0  0  0
   45.0240   32.7110   47.0950 F   0  0  0  0  0  0  0  0  0  0  0  0
   47.1860   33.1160   47.6530 F   0  0  0  0  0  0  0  0  0  0  0  0
   43.4580   34.8540   41.8990 N   0  0  0  0  0  0  0  0  0  0  0  0
   42.1580   35.1720   41.7910 C   0  0  0  0  0  0  0  0  0  0  0  0
   41.5860   35.3260   40.5460 C   0  0  0  0  0  0  0  0  0  0  0  0
   42.3050   35.1640   39.3940 C   0  0  0  0  0  0  0  0  0  0  0  0
   41.7950   35.3020   38.2510 O   0  0  0  0  0  0  0  0  0  0  0  0
   43.6110   34.8440   39.5340 N   0  0  0  0  0  0  0  0  0  0  0  0
   44.1710   34.6930   40.7610 C   0  0  0  0  0  0  0  0  0  0  0  0
   45.4000   34.3930   40.7380 O   0  0  0  0  0  0  0  0  0  0  0  0
   40.1600   35.6750   40.4410 C   0  0  0  0  0  0  0  0  0  0  0  0
   44.8212   36.2460   46.0248 H   0  0  0  0  0  0  0  0  0  0  0  0
   43.5104   36.5504   43.8730 H   0  0  0  0  0  0  0  0  0  0  0  0
   47.0340   31.6081   42.6477 H   0  0  0  0  0  0  0  0  0  0  0  0
   47.8582   27.6001   45.9453 H   0  0  0  0  0  0  0  0  0  0  0  0
   50.0176   28.5304   50.3839 H   0  0  0  0  0  0  0  0  0  0  0  0
   49.4643   32.6915   49.8451 H   0  0  0  0  0  0  0  0  0  0  0  0
   41.5489   35.3098   42.6965 H   0  0  0  0  0  0  0  0  0  0  0  0
   44.1919   34.7123   38.6937 H   0  0  0  0  0  0  0  0  0  0  0  0
   39.7329   35.7795   41.4493 H   0  0  0  0  0  0  0  0  0  0  0  0
   40.0542   36.6255   39.8976 H   0  0  0  0  0  0  0  0  0  0  0  0
   39.6272   34.8808   39.8976 H   0  0  0  0  0  0  0  0  0  0  0  0
  1  6  2  0
  2  1  1  0
  3  4  1  0
  3  2  2  0
  4  5  2  0
  5  7  1  0
  5  6  1  0
  7 11  1  0
  8  9  1  0
  8  7  2  0
  9 10  2  0
 10 11  1  0
 10 12  1  0
 11 21  1  0
 12 13  1  0
 12 20  1  0
 13 14  2  0
 14 15  1  0
 15 16  2  0
 16 17  1  0
 18 17  2  0
 19 18  1  0
 20 19  2  0
 20 15  1  0
 21 24  1  0
 21 22  1  0
 23 21  1  0
 25  3  1  0
 26 25  1  0
 27 26  2  0
 28 30  1  0
 28 27  1  0
 29 28  2  0
 30 31  1  0
 31 25  1  0
 32 31  2  0
 33 27  1  0
  1 34  1  0
  2 35  1  0
  8 36  1  0
 13 37  1  0
 16 38  1  0
 18 39  1  0
 26 40  1  0
 30 41  1  0
 33 42  1  0
 33 43  1  0
 33 44  1  0
M  END
>  <Score>  (1) 
-7.19252

$$$$
