
     RDKit          3D

 43 46  0  0  0  0  0  0  0  0999 V2000
   46.5120   34.5910   42.1490 C   0  0  0  0  0  0  0  0  0  0  0  0
   47.6850   35.2730   41.8960 C   0  0  0  0  0  0  0  0  0  0  0  0
   48.3900   35.1320   40.6890 C   0  0  0  0  0  0  0  0  0  0  0  0
   47.8830   34.2720   39.7130 C   0  0  0  0  0  0  0  0  0  0  0  0
   46.7030   33.5820   39.9610 C   0  0  0  0  0  0  0  0  0  0  0  0
   46.0470   33.7530   41.1590 C   0  0  0  0  0  0  0  0  0  0  0  0
   44.8460   33.0360   41.3830 N   0  0  0  0  0  0  0  0  0  0  0  0
   44.7080   31.8060   41.9220 C   0  0  0  0  0  0  0  0  0  0  0  0
   43.4530   31.2610   42.0660 C   0  0  0  0  0  0  0  0  0  0  0  0
   42.3230   31.9340   41.6750 C   0  0  0  0  0  0  0  0  0  0  0  0
   41.1880   31.3950   41.8260 O   0  0  0  0  0  0  0  0  0  0  0  0
   42.4970   33.1800   41.1320 N   0  0  0  0  0  0  0  0  0  0  0  0
   43.7140   33.7040   40.9950 C   0  0  0  0  0  0  0  0  0  0  0  0
   43.7290   34.8700   40.4750 O   0  0  0  0  0  0  0  0  0  0  0  0
   41.2900   33.8800   40.7230 C   0  0  0  0  0  0  0  0  0  0  0  0
   41.4040   34.4190   39.3180 C   0  0  0  0  0  0  0  0  0  0  0  0
   40.8060   35.7950   39.3290 C   0  0  0  0  0  0  0  0  0  0  0  0
   40.7000   36.2310   40.7530 C   0  0  0  0  0  0  0  0  0  0  0  0
   40.8930   35.0000   41.6170 C   0  0  0  0  0  0  0  0  0  0  0  0
   44.4360   35.9590   44.9660 C   0  0  0  0  0  0  0  0  0  0  0  0
   45.0160   35.8450   43.7060 C   0  0  0  0  0  0  0  0  0  0  0  0
   45.8610   34.8010   43.4180 C   0  0  0  0  0  0  0  0  0  0  0  0
   46.1180   33.8790   44.3970 N   0  0  0  0  0  0  0  0  0  0  0  0
   45.5320   34.0150   45.6310 C   0  0  0  0  0  0  0  0  0  0  0  0
   44.7120   35.0280   45.9100 N   0  0  0  0  0  0  0  0  0  0  0  0
   48.0817   35.9506   42.6664 H   0  0  0  0  0  0  0  0  0  0  0  0
   49.3231   35.6883   40.5163 H   0  0  0  0  0  0  0  0  0  0  0  0
   48.4124   34.1421   38.7576 H   0  0  0  0  0  0  0  0  0  0  0  0
   46.2935   32.9001   39.2012 H   0  0  0  0  0  0  0  0  0  0  0  0
   45.5954   31.2418   42.2448 H   0  0  0  0  0  0  0  0  0  0  0  0
   43.3527   30.2581   42.5067 H   0  0  0  0  0  0  0  0  0  0  0  0
   40.5074   33.1093   40.7824 H   0  0  0  0  0  0  0  0  0  0  0  0
   40.8529   33.7727   38.6191 H   0  0  0  0  0  0  0  0  0  0  0  0
   42.4541   34.4488   38.9918 H   0  0  0  0  0  0  0  0  0  0  0  0
   41.4522   36.4890   38.7715 H   0  0  0  0  0  0  0  0  0  0  0  0
   39.8145   35.7886   38.8526 H   0  0  0  0  0  0  0  0  0  0  0  0
   41.4787   36.9746   40.9780 H   0  0  0  0  0  0  0  0  0  0  0  0
   39.7209   36.6933   40.9469 H   0  0  0  0  0  0  0  0  0  0  0  0
   39.9534   34.7530   42.1329 H   0  0  0  0  0  0  0  0  0  0  0  0
   41.6671   35.1798   42.3776 H   0  0  0  0  0  0  0  0  0  0  0  0
   43.7603   36.7968   45.1928 H   0  0  0  0  0  0  0  0  0  0  0  0
   44.7959   36.5973   42.9342 H   0  0  0  0  0  0  0  0  0  0  0  0
   45.7448   33.2682   46.4101 H   0  0  0  0  0  0  0  0  0  0  0  0
  1 22  1  0
  2  1  2  0
  3  2  1  0
  4  5  1  0
  4  3  2  0
  5  6  2  0
  6  7  1  0
  6  1  1  0
  7  8  1  0
  8  9  2  0
 10 11  2  0
 10  9  1  0
 12 10  1  0
 13 12  1  0
 13  7  1  0
 14 13  2  0
 15 12  1  0
 15 19  1  0
 16 17  1  0
 16 15  1  0
 17 18  1  0
 18 19  1  0
 20 25  2  0
 21 20  1  0
 22 21  2  0
 22 23  1  0
 23 24  2  0
 24 25  1  0
  2 26  1  0
  3 27  1  0
  4 28  1  0
  5 29  1  0
  8 30  1  0
  9 31  1  0
 15 32  1  0
 16 33  1  0
 16 34  1  0
 17 35  1  0
 17 36  1  0
 18 37  1  0
 18 38  1  0
 19 39  1  0
 19 40  1  0
 20 41  1  0
 21 42  1  0
 24 43  1  0
M  END
>  <Score>  (1) 
-7.18927

$$$$
