
     RDKit          3D

 51 56  0  0  0  0  0  0  0  0999 V2000
   44.7880   35.3540   44.7980 C   0  0  0  0  0  0  0  0  0  0  0  0
   45.6190   35.0250   43.7110 C   0  0  0  0  0  0  0  0  0  0  0  0
   46.4900   33.9850   43.7500 C   0  0  0  0  0  0  0  0  0  0  0  0
   46.5460   33.2530   44.8760 N   0  0  0  0  0  0  0  0  0  0  0  0
   45.7280   33.5790   45.9380 C   0  0  0  0  0  0  0  0  0  0  0  0
   44.8900   34.5810   45.9030 N   0  0  0  0  0  0  0  0  0  0  0  0
   45.9470   32.6430   47.0810 C   0  0  0  0  0  0  0  0  0  0  0  0
   45.0240   32.3060   48.1720 C   0  0  0  0  0  0  0  0  0  0  0  0
   46.0730   31.1400   49.0750 S   0  0  0  0  0  0  0  0  0  0  0  0
   47.5270   31.2970   47.8730 C   0  0  0  0  0  0  0  0  0  0  0  0
   47.1510   32.1620   46.9320 N   0  0  0  0  0  0  0  0  0  0  0  0
   48.6890   30.5040   48.1850 N   0  0  0  0  0  0  0  0  0  0  0  0
   48.9420   29.2650   47.7320 C   0  0  0  0  0  0  0  0  0  0  0  0
   50.1310   28.9070   48.2710 N   0  0  0  0  0  0  0  0  0  0  0  0
   50.5900   29.9050   49.0340 C   0  0  0  0  0  0  0  0  0  0  0  0
   51.7030   30.1450   49.8200 C   0  0  0  0  0  0  0  0  0  0  0  0
   51.8950   31.3030   50.5010 N   0  0  0  0  0  0  0  0  0  0  0  0
   50.9690   32.2880   50.4260 C   0  0  0  0  0  0  0  0  0  0  0  0
   49.8730   32.0830   49.6670 N   0  0  0  0  0  0  0  0  0  0  0  0
   49.6730   30.9330   48.9850 C   0  0  0  0  0  0  0  0  0  0  0  0
   52.6940   29.1220   49.9160 N   0  0  0  0  0  0  0  0  0  0  0  0
   47.3350   33.6820   42.6050 C   0  0  0  0  0  0  0  0  0  0  0  0
   47.5970   34.7850   41.6510 C   0  0  0  0  0  0  0  0  0  0  0  0
   47.3150   34.2870   40.2700 C   0  0  0  0  0  0  0  0  0  0  0  0
   48.2440   34.3500   39.2500 C   0  0  0  0  0  0  0  0  0  0  0  0
   48.0840   33.9270   37.9690 C   0  0  0  0  0  0  0  0  0  0  0  0
   46.8590   33.3880   37.7070 N   0  0  0  0  0  0  0  0  0  0  0  0
   45.9230   33.3080   38.6740 C   0  0  0  0  0  0  0  0  0  0  0  0
   46.1060   33.7370   39.9470 N   0  0  0  0  0  0  0  0  0  0  0  0
   44.6430   32.7200   38.3120 C   0  0  0  0  0  0  0  0  0  0  0  0
   43.4530   33.3210   38.7230 C   0  0  0  0  0  0  0  0  0  0  0  0
   42.2490   32.7610   38.3790 C   0  0  0  0  0  0  0  0  0  0  0  0
   42.1930   31.6450   37.6530 N   0  0  0  0  0  0  0  0  0  0  0  0
   43.3560   31.0800   37.2650 C   0  0  0  0  0  0  0  0  0  0  0  0
   44.5820   31.5930   37.5780 N   0  0  0  0  0  0  0  0  0  0  0  0
   44.0877   36.2010   44.7510 H   0  0  0  0  0  0  0  0  0  0  0  0
   45.5604   35.6331   42.7962 H   0  0  0  0  0  0  0  0  0  0  0  0
   44.0021   32.6568   48.3785 H   0  0  0  0  0  0  0  0  0  0  0  0
   48.3116   28.6640   47.0602 H   0  0  0  0  0  0  0  0  0  0  0  0
   51.1073   33.2333   50.9713 H   0  0  0  0  0  0  0  0  0  0  0  0
   53.5338   29.2711   50.4934 H   0  0  0  0  0  0  0  0  0  0  0  0
   52.5692   28.2348   49.4078 H   0  0  0  0  0  0  0  0  0  0  0  0
   48.3064   33.3395   42.9910 H   0  0  0  0  0  0  0  0  0  0  0  0
   46.7747   32.9321   42.0273 H   0  0  0  0  0  0  0  0  0  0  0  0
   46.9418   35.6384   41.8798 H   0  0  0  0  0  0  0  0  0  0  0  0
   48.6438   35.1136   41.7293 H   0  0  0  0  0  0  0  0  0  0  0  0
   49.2198   34.7907   39.5023 H   0  0  0  0  0  0  0  0  0  0  0  0
   48.8744   34.0119   37.2087 H   0  0  0  0  0  0  0  0  0  0  0  0
   43.4802   34.2430   39.3223 H   0  0  0  0  0  0  0  0  0  0  0  0
   41.3152   33.2406   38.7076 H   0  0  0  0  0  0  0  0  0  0  0  0
   43.3138   30.1586   36.6656 H   0  0  0  0  0  0  0  0  0  0  0  0
  1  6  2  0
  2  3  2  0
  2  1  1  0
  3  4  1  0
  4  5  2  0
  5  7  1  0
  6  5  1  0
  7  8  2  0
  8  9  1  0
 10 12  1  0
 10  9  1  0
 11  7  1  0
 11 10  2  0
 12 20  1  0
 13 12  1  0
 13 14  2  0
 14 15  1  0
 15 16  2  0
 16 21  1  0
 16 17  1  0
 18 17  2  0
 19 18  1  0
 20 15  1  0
 20 19  2  0
 22  3  1  0
 23 22  1  0
 24 23  1  0
 25 24  2  0
 26 25  1  0
 27 26  2  0
 27 28  1  0
 28 29  2  0
 29 24  1  0
 30 28  1  0
 30 31  2  0
 32 31  1  0
 33 32  2  0
 34 35  2  0
 34 33  1  0
 35 30  1  0
  1 36  1  0
  2 37  1  0
  8 38  1  0
 13 39  1  0
 18 40  1  0
 21 41  1  0
 21 42  1  0
 22 43  1  0
 22 44  1  0
 23 45  1  0
 23 46  1  0
 25 47  1  0
 26 48  1  0
 31 49  1  0
 32 50  1  0
 34 51  1  0
M  END
>  <Score>  (1) 
-7.14787

$$$$
