
     RDKit          3D

 39 43  0  0  0  0  0  0  0  0999 V2000
   44.6330   35.7910   44.7720 C   0  0  0  0  0  0  0  0  0  0  0  0
   44.1250   35.6280   43.4720 C   0  0  0  0  0  0  0  0  0  0  0  0
   44.3880   34.4330   42.8510 C   0  0  0  0  0  0  0  0  0  0  0  0
   45.1060   33.5390   43.5510 N   0  0  0  0  0  0  0  0  0  0  0  0
   45.6050   33.6650   44.7930 C   0  0  0  0  0  0  0  0  0  0  0  0
   45.3090   34.8140   45.2950 N   0  0  0  0  0  0  0  0  0  0  0  0
   46.3210   32.5000   45.2290 C   0  0  0  0  0  0  0  0  0  0  0  0
   47.1230   31.7620   44.3590 C   0  0  0  0  0  0  0  0  0  0  0  0
   47.8120   30.6400   44.7420 C   0  0  0  0  0  0  0  0  0  0  0  0
   47.7480   30.1760   46.0300 C   0  0  0  0  0  0  0  0  0  0  0  0
   46.9770   30.8730   46.8960 C   0  0  0  0  0  0  0  0  0  0  0  0
   46.9090   30.4080   48.2040 C   0  0  0  0  0  0  0  0  0  0  0  0
   46.1480   31.0600   49.1490 C   0  0  0  0  0  0  0  0  0  0  0  0
   45.4530   32.1940   48.7540 C   0  0  0  0  0  0  0  0  0  0  0  0
   45.5700   32.5900   47.4510 C   0  0  0  0  0  0  0  0  0  0  0  0
   46.3030   31.9870   46.4820 C   0  0  0  0  0  0  0  0  0  0  0  0
   43.8930   34.1800   41.5060 C   0  0  0  0  0  0  0  0  0  0  0  0
   44.8300   33.7880   40.4690 C   0  0  0  0  0  0  0  0  0  0  0  0
   43.7120   33.5810   38.9610 S   0  0  0  0  0  0  0  0  0  0  0  0
   42.2380   34.0580   40.0310 C   0  0  0  0  0  0  0  0  0  0  0  0
   42.6600   34.2450   41.0420 N   0  0  0  0  0  0  0  0  0  0  0  0
   40.8270   34.1310   39.4910 C   0  0  0  0  0  0  0  0  0  0  0  0
   40.4240   34.3000   38.1850 C   0  0  0  0  0  0  0  0  0  0  0  0
   39.0450   34.2960   38.2380 C   0  0  0  0  0  0  0  0  0  0  0  0
   38.6870   34.1280   39.5540 C   0  0  0  0  0  0  0  0  0  0  0  0
   39.7770   34.0340   40.2660 O   0  0  0  0  0  0  0  0  0  0  0  0
   44.4623   36.7223   45.3319 H   0  0  0  0  0  0  0  0  0  0  0  0
   43.5446   36.4200   42.9762 H   0  0  0  0  0  0  0  0  0  0  0  0
   47.2070   32.0963   43.3144 H   0  0  0  0  0  0  0  0  0  0  0  0
   48.4260   30.1037   44.0035 H   0  0  0  0  0  0  0  0  0  0  0  0
   48.2986   29.2775   46.3454 H   0  0  0  0  0  0  0  0  0  0  0  0
   47.4710   29.5063   48.4886 H   0  0  0  0  0  0  0  0  0  0  0  0
   46.0930   30.6931   50.1845 H   0  0  0  0  0  0  0  0  0  0  0  0
   44.8291   32.7552   49.4652 H   0  0  0  0  0  0  0  0  0  0  0  0
   45.0117   33.4913   47.1578 H   0  0  0  0  0  0  0  0  0  0  0  0
   45.9184   33.6469   40.5429 H   0  0  0  0  0  0  0  0  0  0  0  0
   41.0611   34.4132   37.2954 H   0  0  0  0  0  0  0  0  0  0  0  0
   38.3595   34.4068   37.3849 H   0  0  0  0  0  0  0  0  0  0  0  0
   37.6584   34.0808   39.9410 H   0  0  0  0  0  0  0  0  0  0  0  0
  1  6  2  0
  2  1  1  0
  3  2  2  0
  3  4  1  0
  4  5  2  0
  5  7  1  0
  5  6  1  0
  7 16  2  0
  8  9  2  0
  8  7  1  0
  9 10  1  0
 10 11  2  0
 11 12  1  0
 12 13  2  0
 14 13  1  0
 15 14  2  0
 16 11  1  0
 16 15  1  0
 17  3  1  0
 18 17  2  0
 19 20  1  0
 19 18  1  0
 20 21  2  0
 21 17  1  0
 22 20  1  0
 22 26  1  0
 23 24  1  0
 23 22  2  0
 24 25  2  0
 25 26  1  0
  1 27  1  0
  2 28  1  0
  8 29  1  0
  9 30  1  0
 10 31  1  0
 12 32  1  0
 13 33  1  0
 14 34  1  0
 15 35  1  0
 18 36  1  0
 23 37  1  0
 24 38  1  0
 25 39  1  0
M  END
>  <Score>  (1) 
-7.01438

$$$$
