
     RDKit          3D

 46 50  0  0  0  0  0  0  0  0999 V2000
   46.7310   34.7410   41.6770 C   0  0  0  0  0  0  0  0  0  0  0  0
   44.5850   35.8730   44.5350 C   0  0  0  0  0  0  0  0  0  0  0  0
   45.1820   35.8240   43.2700 C   0  0  0  0  0  0  0  0  0  0  0  0
   46.0910   34.8080   43.0120 C   0  0  0  0  0  0  0  0  0  0  0  0
   46.3600   33.9080   44.0000 N   0  0  0  0  0  0  0  0  0  0  0  0
   45.7670   33.9800   45.2150 C   0  0  0  0  0  0  0  0  0  0  0  0
   44.8760   34.9730   45.4750 N   0  0  0  0  0  0  0  0  0  0  0  0
   46.0680   33.0120   46.2520 C   0  0  0  0  0  0  0  0  0  0  0  0
   45.3900   33.0400   47.4560 C   0  0  0  0  0  0  0  0  0  0  0  0
   45.6320   32.1430   48.4910 C   0  0  0  0  0  0  0  0  0  0  0  0
   46.5960   31.2370   48.2070 C   0  0  0  0  0  0  0  0  0  0  0  0
   47.3070   31.1510   47.0340 C   0  0  0  0  0  0  0  0  0  0  0  0
   46.9930   32.0760   46.0900 N   0  0  0  0  0  0  0  0  0  0  0  0
   44.3870   34.0420   47.6390 N   0  0  0  0  0  0  0  0  0  0  0  0
   48.1260   35.3380   41.6830 C   0  0  0  0  0  0  0  0  0  0  0  0
   49.1640   34.3380   41.9590 C   0  0  0  0  0  0  0  0  0  0  0  0
   50.3400   34.6330   42.4980 N   0  0  0  0  0  0  0  0  0  0  0  0
   51.0160   33.5530   42.6210 O   0  0  0  0  0  0  0  0  0  0  0  0
   50.3330   32.5040   42.1760 C   0  0  0  0  0  0  0  0  0  0  0  0
   49.1750   33.0220   41.7650 N   0  0  0  0  0  0  0  0  0  0  0  0
   51.0050   31.2120   42.2670 C   0  0  0  0  0  0  0  0  0  0  0  0
   50.8050   30.2990   43.2450 N   0  0  0  0  0  0  0  0  0  0  0  0
   51.4210   29.1260   43.3200 C   0  0  0  0  0  0  0  0  0  0  0  0
   52.3240   28.7410   42.3980 N   0  0  0  0  0  0  0  0  0  0  0  0
   52.6060   29.5840   41.3630 C   0  0  0  0  0  0  0  0  0  0  0  0
   53.5230   29.1920   40.4260 C   0  0  0  0  0  0  0  0  0  0  0  0
   53.8320   30.0180   39.3690 C   0  0  0  0  0  0  0  0  0  0  0  0
   53.1880   31.2360   39.2950 C   0  0  0  0  0  0  0  0  0  0  0  0
   52.2740   31.5720   40.2720 C   0  0  0  0  0  0  0  0  0  0  0  0
   51.9320   30.7930   41.3370 C   0  0  0  0  0  0  0  0  0  0  0  0
   46.1106   35.2959   40.9578 H   0  0  0  0  0  0  0  0  0  0  0  0
   46.8169   33.6812   41.3950 H   0  0  0  0  0  0  0  0  0  0  0  0
   43.8609   36.6703   44.7584 H   0  0  0  0  0  0  0  0  0  0  0  0
   44.9370   36.5712   42.5008 H   0  0  0  0  0  0  0  0  0  0  0  0
   45.0915   32.1677   49.4487 H   0  0  0  0  0  0  0  0  0  0  0  0
   46.8329   30.5000   48.9884 H   0  0  0  0  0  0  0  0  0  0  0  0
   48.0787   30.3844   46.8705 H   0  0  0  0  0  0  0  0  0  0  0  0
   43.8631   34.0906   48.5245 H   0  0  0  0  0  0  0  0  0  0  0  0
   44.1882   34.7154   46.8854 H   0  0  0  0  0  0  0  0  0  0  0  0
   48.3218   35.7871   40.6981 H   0  0  0  0  0  0  0  0  0  0  0  0
   48.1644   36.0898   42.4851 H   0  0  0  0  0  0  0  0  0  0  0  0
   51.1881   28.4509   44.1566 H   0  0  0  0  0  0  0  0  0  0  0  0
   54.0153   28.2126   40.5178 H   0  0  0  0  0  0  0  0  0  0  0  0
   54.5678   29.7170   38.6087 H   0  0  0  0  0  0  0  0  0  0  0  0
   53.4005   31.9297   38.4682 H   0  0  0  0  0  0  0  0  0  0  0  0
   51.7796   32.5507   40.1843 H   0  0  0  0  0  0  0  0  0  0  0  0
  1 15  1  0
  1  4  1  0
  2  7  2  0
  3  2  1  0
  4  3  2  0
  4  5  1  0
  5  6  2  0
  6  7  1  0
  6  8  1  0
  8  9  2  0
  9 14  1  0
  9 10  1  0
 11 10  2  0
 12 11  1  0
 13  8  1  0
 13 12  2  0
 15 16  1  0
 16 17  2  0
 17 18  1  0
 19 21  1  0
 19 18  1  0
 20 16  1  0
 20 19  2  0
 21 22  2  0
 22 23  1  0
 24 23  2  0
 25 24  1  0
 26 25  2  0
 27 26  1  0
 28 27  2  0
 28 29  1  0
 29 30  2  0
 30 25  1  0
 30 21  1  0
  1 31  1  0
  1 32  1  0
  2 33  1  0
  3 34  1  0
 10 35  1  0
 11 36  1  0
 12 37  1  0
 14 38  1  0
 14 39  1  0
 15 40  1  0
 15 41  1  0
 23 42  1  0
 26 43  1  0
 27 44  1  0
 28 45  1  0
 29 46  1  0
M  END
>  <Score>  (1) 
-7.37389

$$$$
