
     RDKit          3D

 51 55  0  0  1  0  0  0  0  0999 V2000
   45.7240   33.8640   45.4590 C   0  0  0  0  0  0  0  0  0  0  0  0
   46.5270   33.8650   44.3200 C   0  0  0  0  0  0  0  0  0  0  0  0
   46.3240   34.8430   43.3500 C   0  0  0  0  0  0  0  0  0  0  0  0
   45.3540   35.7590   43.5460 N   0  0  0  0  0  0  0  0  0  0  0  0
   44.5830   35.7440   44.6570 C   0  0  0  0  0  0  0  0  0  0  0  0
   44.7730   34.7990   45.6020 N   0  0  0  0  0  0  0  0  0  0  0  0
   47.1740   34.8280   42.1670 C   0  0  0  0  0  0  0  0  0  0  0  0
   48.4430   35.4020   42.0450 C   0  0  0  0  0  0  0  0  0  0  0  0
   48.9150   35.1860   40.8100 N   0  0  0  0  0  0  0  0  0  0  0  0
   47.9690   34.4820   40.1360 C   0  0  0  0  0  0  0  0  0  0  0  0
   47.9600   34.0070   38.8360 C   0  0  0  0  0  0  0  0  0  0  0  0
   46.8780   33.3170   38.3880 C   0  0  0  0  0  0  0  0  0  0  0  0
   45.7480   33.0470   39.1610 C   0  0  0  0  0  0  0  0  0  0  0  0
   45.8240   33.5530   40.4560 C   0  0  0  0  0  0  0  0  0  0  0  0
   46.8650   34.2400   40.9530 C   0  0  0  0  0  0  0  0  0  0  0  0
   45.8710   32.9240   46.4580 O   0  0  0  0  0  0  0  0  0  0  0  0
   45.1900   32.9160   47.6740 C   0  0  1  0  0  0  0  0  0  0  0  0
   44.7460   31.5890   48.1740 C   0  0  0  0  0  0  0  0  0  0  0  0
   45.9360   32.3180   48.8270 C   0  0  1  0  0  0  0  0  0  0  0  0
   47.2750   31.7000   48.5420 C   0  0  0  0  0  0  0  0  0  0  0  0
   47.8300   31.9490   47.4420 O   0  0  0  0  0  0  0  0  0  0  0  0
   48.0020   30.8680   49.3350 O   0  0  0  0  0  0  0  0  0  0  0  0
   49.3710   30.6780   49.2060 C   0  0  0  0  0  0  0  0  0  0  0  0
   50.0490   31.8500   49.9030 C   0  0  0  0  0  0  0  0  0  0  0  0
   51.5090   31.5450   50.1200 C   0  0  0  0  0  0  0  0  0  0  0  0
   51.7250   30.4590   51.1430 C   0  0  0  0  0  0  0  0  0  0  0  0
   50.4710   29.6120   51.1990 C   0  0  0  0  0  0  0  0  0  0  0  0
   49.9350   29.4260   49.7830 C   0  0  0  0  0  0  0  0  0  0  0  0
   47.3102   33.1038   44.1891 H   0  0  0  0  0  0  0  0  0  0  0  0
   43.7990   36.5039   44.7909 H   0  0  0  0  0  0  0  0  0  0  0  0
   48.9723   35.9470   42.8405 H   0  0  0  0  0  0  0  0  0  0  0  0
   49.8252   35.4959   40.4406 H   0  0  0  0  0  0  0  0  0  0  0  0
   48.8191   34.1859   38.1727 H   0  0  0  0  0  0  0  0  0  0  0  0
   46.8941   32.9485   37.3517 H   0  0  0  0  0  0  0  0  0  0  0  0
   44.8796   32.4875   38.7831 H   0  0  0  0  0  0  0  0  0  0  0  0
   44.9665   33.3766   41.1221 H   0  0  0  0  0  0  0  0  0  0  0  0
   44.6779   33.8738   47.5000 H   0  0  0  0  0  0  0  0  0  0  0  0
   43.7930   31.4936   48.7149 H   0  0  0  0  0  0  0  0  0  0  0  0
   44.5873   30.5973   47.7252 H   0  0  0  0  0  0  0  0  0  0  0  0
   46.2113   32.6706   49.8319 H   0  0  0  0  0  0  0  0  0  0  0  0
   49.5581   30.6020   48.1247 H   0  0  0  0  0  0  0  0  0  0  0  0
   49.9537   32.7503   49.2781 H   0  0  0  0  0  0  0  0  0  0  0  0
   49.5665   32.0196   50.8769 H   0  0  0  0  0  0  0  0  0  0  0  0
   51.9479   31.2221   49.1644 H   0  0  0  0  0  0  0  0  0  0  0  0
   51.9897   32.4599   50.4966 H   0  0  0  0  0  0  0  0  0  0  0  0
   52.5833   29.8362   50.8506 H   0  0  0  0  0  0  0  0  0  0  0  0
   51.9328   30.8994   52.1294 H   0  0  0  0  0  0  0  0  0  0  0  0
   50.7078   28.6306   51.6358 H   0  0  0  0  0  0  0  0  0  0  0  0
   49.7130   30.1101   51.8213 H   0  0  0  0  0  0  0  0  0  0  0  0
   49.1435   28.6624   49.8051 H   0  0  0  0  0  0  0  0  0  0  0  0
   50.7803   29.1223   49.1480 H   0  0  0  0  0  0  0  0  0  0  0  0
  1  6  1  0
  1 16  1  0
  2  1  2  0
  3  4  2  0
  3  2  1  0
  4  5  1  0
  5  6  2  0
  7  3  1  0
  8  7  2  0
  9  8  1  0
 10  9  1  0
 10 15  2  0
 11 10  1  0
 12 11  2  0
 12 13  1  0
 13 14  2  0
 14 15  1  0
 15  7  1  0
 16 17  1  0
 17 18  1  0
 17 19  1  0
 18 19  1  0
 20 19  1  0
 20 22  1  0
 21 20  2  0
 23 22  1  0
 23 28  1  0
 23 24  1  0
 24 25  1  0
 25 26  1  0
 26 27  1  0
 28 27  1  0
  2 29  1  0
  5 30  1  0
  8 31  1  0
  9 32  1  0
 11 33  1  0
 12 34  1  0
 13 35  1  0
 14 36  1  0
 17 37  1  1
 18 38  1  0
 18 39  1  0
 19 40  1  1
 23 41  1  0
 24 42  1  0
 24 43  1  0
 25 44  1  0
 25 45  1  0
 26 46  1  0
 26 47  1  0
 27 48  1  0
 27 49  1  0
 28 50  1  0
 28 51  1  0
M  END
>  <Score>  (1) 
-7.2565

$$$$
