
     RDKit          3D

 40 43  0  0  0  0  0  0  0  0999 V2000
   44.5790   35.8630   44.5660 C   0  0  0  0  0  0  0  0  0  0  0  0
   45.1770   35.8070   43.2990 C   0  0  0  0  0  0  0  0  0  0  0  0
   46.0810   34.8080   43.0350 C   0  0  0  0  0  0  0  0  0  0  0  0
   46.3590   33.9040   44.0280 N   0  0  0  0  0  0  0  0  0  0  0  0
   45.7670   33.9740   45.2560 C   0  0  0  0  0  0  0  0  0  0  0  0
   44.8690   34.9690   45.5120 N   0  0  0  0  0  0  0  0  0  0  0  0
   46.0740   33.0130   46.2840 C   0  0  0  0  0  0  0  0  0  0  0  0
   45.3730   33.0460   47.4900 C   0  0  0  0  0  0  0  0  0  0  0  0
   45.6170   32.1460   48.5320 C   0  0  0  0  0  0  0  0  0  0  0  0
   46.5920   31.2550   48.2490 C   0  0  0  0  0  0  0  0  0  0  0  0
   47.3160   31.1780   47.0790 C   0  0  0  0  0  0  0  0  0  0  0  0
   47.0030   32.0890   46.1420 N   0  0  0  0  0  0  0  0  0  0  0  0
   44.3660   34.0440   47.6540 N   0  0  0  0  0  0  0  0  0  0  0  0
   46.7270   34.7280   41.7040 C   0  0  0  0  0  0  0  0  0  0  0  0
   48.1420   35.3100   41.7380 C   0  0  0  0  0  0  0  0  0  0  0  0
   49.1570   34.2810   42.0110 C   0  0  0  0  0  0  0  0  0  0  0  0
   50.3910   34.5680   42.4190 N   0  0  0  0  0  0  0  0  0  0  0  0
   51.0500   33.4660   42.5760 O   0  0  0  0  0  0  0  0  0  0  0  0
   50.2720   32.4360   42.2770 C   0  0  0  0  0  0  0  0  0  0  0  0
   49.0740   32.9440   41.9200 N   0  0  0  0  0  0  0  0  0  0  0  0
   50.7730   31.1040   42.3720 N   0  0  0  0  0  0  0  0  0  0  0  0
   50.7050   30.1640   43.3050 N   0  0  0  0  0  0  0  0  0  0  0  0
   51.3560   29.0680   42.8930 C   0  0  0  0  0  0  0  0  0  0  0  0
   51.8650   29.3420   41.6160 C   0  0  0  0  0  0  0  0  0  0  0  0
   51.4710   30.6480   41.3240 C   0  0  0  0  0  0  0  0  0  0  0  0
   51.9290   31.3950   39.7520 S   0  0  0  0  0  0  0  0  0  0  0  0
   43.8549   36.6617   44.7844 H   0  0  0  0  0  0  0  0  0  0  0  0
   44.9259   36.5514   42.5290 H   0  0  0  0  0  0  0  0  0  0  0  0
   45.0700   32.1620   49.4862 H   0  0  0  0  0  0  0  0  0  0  0  0
   46.8318   30.5180   49.0296 H   0  0  0  0  0  0  0  0  0  0  0  0
   48.0984   30.4209   46.9224 H   0  0  0  0  0  0  0  0  0  0  0  0
   43.8302   34.0956   48.5322 H   0  0  0  0  0  0  0  0  0  0  0  0
   44.1750   34.7126   46.8942 H   0  0  0  0  0  0  0  0  0  0  0  0
   46.1241   35.2935   40.9783 H   0  0  0  0  0  0  0  0  0  0  0  0
   46.7934   33.6693   41.4129 H   0  0  0  0  0  0  0  0  0  0  0  0
   48.3588   35.7725   40.7638 H   0  0  0  0  0  0  0  0  0  0  0  0
   48.1841   36.0511   42.5498 H   0  0  0  0  0  0  0  0  0  0  0  0
   51.4699   28.1279   43.4527 H   0  0  0  0  0  0  0  0  0  0  0  0
   52.4531   28.6672   40.9767 H   0  0  0  0  0  0  0  0  0  0  0  0
   52.6349   32.5464   39.9820 H   0  0  0  0  0  0  0  0  0  0  0  0
  1  6  2  0
  2  1  1  0
  3  2  2  0
  3  4  1  0
  4  5  2  0
  5  6  1  0
  5  7  1  0
  7  8  2  0
  8 13  1  0
  8  9  1  0
 10  9  2  0
 11 10  1  0
 12  7  1  0
 12 11  2  0
 14 15  1  0
 14  3  1  0
 15 16  1  0
 16 17  2  0
 17 18  1  0
 19 21  1  0
 19 18  1  0
 20 16  1  0
 20 19  2  0
 21 22  1  0
 23 22  2  0
 24 23  1  0
 25 24  2  0
 25 21  1  0
 26 25  1  0
  1 27  1  0
  2 28  1  0
  9 29  1  0
 10 30  1  0
 11 31  1  0
 13 32  1  0
 13 33  1  0
 14 34  1  0
 14 35  1  0
 15 36  1  0
 15 37  1  0
 23 38  1  0
 24 39  1  0
 26 40  1  0
M  END
>  <Score>  (1) 
-7.11575

$$$$
