
     RDKit          3D

 38 41  0  0  0  0  0  0  0  0999 V2000
   47.0090   34.8100   42.0190 C   0  0  0  0  0  0  0  0  0  0  0  0
   48.2130   35.4840   41.9970 C   0  0  0  0  0  0  0  0  0  0  0  0
   48.9210   35.4400   40.8400 C   0  0  0  0  0  0  0  0  0  0  0  0
   48.4460   34.7630   39.7830 N   0  0  0  0  0  0  0  0  0  0  0  0
   47.2630   34.1070   39.8210 C   0  0  0  0  0  0  0  0  0  0  0  0
   46.5500   34.1490   40.9790 N   0  0  0  0  0  0  0  0  0  0  0  0
   46.8330   33.4170   38.6610 N   0  0  0  0  0  0  0  0  0  0  0  0
   45.9460   32.4160   38.8900 C   0  0  0  0  0  0  0  0  0  0  0  0
   45.4480   31.6620   37.8300 C   0  0  0  0  0  0  0  0  0  0  0  0
   45.9210   32.0130   36.5810 C   0  0  0  0  0  0  0  0  0  0  0  0
   45.4380   31.2980   35.6480 O   0  0  0  0  0  0  0  0  0  0  0  0
   46.7980   33.0010   36.3380 N   0  0  0  0  0  0  0  0  0  0  0  0
   47.2490   33.7000   37.4050 C   0  0  0  0  0  0  0  0  0  0  0  0
   48.0610   34.6250   37.2490 O   0  0  0  0  0  0  0  0  0  0  0  0
   44.5030   35.7880   44.6200 C   0  0  0  0  0  0  0  0  0  0  0  0
   45.2340   35.8010   43.4010 C   0  0  0  0  0  0  0  0  0  0  0  0
   46.2290   34.8410   43.2490 C   0  0  0  0  0  0  0  0  0  0  0  0
   46.4460   33.9590   44.2520 N   0  0  0  0  0  0  0  0  0  0  0  0
   45.7140   33.9900   45.4060 C   0  0  0  0  0  0  0  0  0  0  0  0
   44.7520   34.9030   45.5770 N   0  0  0  0  0  0  0  0  0  0  0  0
   46.0010   33.0180   46.4330 C   0  0  0  0  0  0  0  0  0  0  0  0
   45.2240   32.9640   47.5740 C   0  0  0  0  0  0  0  0  0  0  0  0
   45.4510   32.0480   48.6020 C   0  0  0  0  0  0  0  0  0  0  0  0
   46.5130   31.1610   48.4470 C   0  0  0  0  0  0  0  0  0  0  0  0
   47.3140   31.1840   47.3200 C   0  0  0  0  0  0  0  0  0  0  0  0
   47.0390   32.1240   46.3230 C   0  0  0  0  0  0  0  0  0  0  0  0
   48.5819   36.0317   42.8767 H   0  0  0  0  0  0  0  0  0  0  0  0
   49.8872   35.9609   40.7683 H   0  0  0  0  0  0  0  0  0  0  0  0
   45.6187   32.1990   39.9175 H   0  0  0  0  0  0  0  0  0  0  0  0
   44.7279   30.8437   37.9776 H   0  0  0  0  0  0  0  0  0  0  0  0
   47.1132   33.2169   35.3815 H   0  0  0  0  0  0  0  0  0  0  0  0
   43.7083   36.5327   44.7745 H   0  0  0  0  0  0  0  0  0  0  0  0
   45.0221   36.5380   42.6124 H   0  0  0  0  0  0  0  0  0  0  0  0
   44.3901   33.6740   47.6766 H   0  0  0  0  0  0  0  0  0  0  0  0
   44.8157   32.0275   49.4998 H   0  0  0  0  0  0  0  0  0  0  0  0
   46.7194   30.4256   49.2386 H   0  0  0  0  0  0  0  0  0  0  0  0
   48.1499   30.4774   47.2105 H   0  0  0  0  0  0  0  0  0  0  0  0
   47.6720   32.1490   45.4237 H   0  0  0  0  0  0  0  0  0  0  0  0
  1 17  1  0
  2  1  2  0
  3  2  1  0
  4  5  1  0
  4  3  2  0
  5  6  2  0
  6  1  1  0
  7  8  1  0
  7  5  1  0
  9  8  2  0
 10  9  1  0
 11 10  2  0
 12 10  1  0
 12 13  1  0
 13  7  1  0
 14 13  2  0
 15 20  2  0
 16 15  1  0
 17 16  2  0
 17 18  1  0
 18 19  2  0
 19 20  1  0
 19 21  1  0
 21 22  2  0
 22 23  1  0
 24 23  2  0
 25 24  1  0
 26 21  1  0
 26 25  2  0
  2 27  1  0
  3 28  1  0
  8 29  1  0
  9 30  1  0
 12 31  1  0
 15 32  1  0
 16 33  1  0
 22 34  1  0
 23 35  1  0
 24 36  1  0
 25 37  1  0
 26 38  1  0
M  END
>  <Score>  (1) 
-7.64023

$$$$
