
     RDKit          3D

 50 54  0  0  0  0  0  0  0  0999 V2000
   46.8720   34.7340   41.9380 C   0  0  0  0  0  0  0  0  0  0  0  0
   48.2040   35.1220   41.7330 C   0  0  0  0  0  0  0  0  0  0  0  0
   48.4390   34.7430   40.4150 C   0  0  0  0  0  0  0  0  0  0  0  0
   47.2800   34.1660   39.9080 C   0  0  0  0  0  0  0  0  0  0  0  0
   46.3740   34.1880   40.8670 O   0  0  0  0  0  0  0  0  0  0  0  0
   44.4990   36.0680   44.4640 C   0  0  0  0  0  0  0  0  0  0  0  0
   45.2370   35.9430   43.2410 C   0  0  0  0  0  0  0  0  0  0  0  0
   46.1040   34.8940   43.1600 C   0  0  0  0  0  0  0  0  0  0  0  0
   46.2250   34.0420   44.2090 N   0  0  0  0  0  0  0  0  0  0  0  0
   45.5200   34.1770   45.3480 C   0  0  0  0  0  0  0  0  0  0  0  0
   44.6520   35.1970   45.4760 N   0  0  0  0  0  0  0  0  0  0  0  0
   45.7560   33.2010   46.3610 N   0  0  0  0  0  0  0  0  0  0  0  0
   45.1370   33.1540   47.5320 N   0  0  0  0  0  0  0  0  0  0  0  0
   45.5650   32.1250   48.2780 C   0  0  0  0  0  0  0  0  0  0  0  0
   46.5420   31.4540   47.5240 C   0  0  0  0  0  0  0  0  0  0  0  0
   46.6340   32.1530   46.3320 C   0  0  0  0  0  0  0  0  0  0  0  0
   47.1160   33.6540   38.6010 N   0  0  0  0  0  0  0  0  0  0  0  0
   46.1580   32.7290   38.3990 C   0  0  0  0  0  0  0  0  0  0  0  0
   45.9320   32.1790   37.1600 C   0  0  0  0  0  0  0  0  0  0  0  0
   46.7320   32.6080   36.1040 C   0  0  0  0  0  0  0  0  0  0  0  0
   46.5350   32.1110   34.9620 O   0  0  0  0  0  0  0  0  0  0  0  0
   47.6880   33.5450   36.3520 N   0  0  0  0  0  0  0  0  0  0  0  0
   47.8630   34.0510   37.6010 C   0  0  0  0  0  0  0  0  0  0  0  0
   48.7610   34.9100   37.7600 O   0  0  0  0  0  0  0  0  0  0  0  0
   44.8720   31.1770   37.0060 C   0  0  0  0  0  0  0  0  0  0  0  0
   45.2280   29.7930   37.4310 C   0  0  0  0  0  0  0  0  0  0  0  0
   45.4400   28.9850   36.1450 C   0  0  0  0  0  0  0  0  0  0  0  0
   44.2300   28.1030   36.0120 C   0  0  0  0  0  0  0  0  0  0  0  0
   43.5490   28.0380   37.3400 C   0  0  0  0  0  0  0  0  0  0  0  0
   44.1720   29.0920   38.2190 C   0  0  0  0  0  0  0  0  0  0  0  0
   48.8933   35.6066   42.4401 H   0  0  0  0  0  0  0  0  0  0  0  0
   49.3829   34.8773   39.8664 H   0  0  0  0  0  0  0  0  0  0  0  0
   43.7880   36.8997   44.5770 H   0  0  0  0  0  0  0  0  0  0  0  0
   45.1104   36.6554   42.4125 H   0  0  0  0  0  0  0  0  0  0  0  0
   45.2176   31.8577   49.2869 H   0  0  0  0  0  0  0  0  0  0  0  0
   47.1136   30.5614   47.8183 H   0  0  0  0  0  0  0  0  0  0  0  0
   47.3052   31.9051   45.4965 H   0  0  0  0  0  0  0  0  0  0  0  0
   45.5396   32.4049   39.2490 H   0  0  0  0  0  0  0  0  0  0  0  0
   48.2872   33.8751   35.5820 H   0  0  0  0  0  0  0  0  0  0  0  0
   44.0083   31.5032   37.6040 H   0  0  0  0  0  0  0  0  0  0  0  0
   44.6682   31.1176   35.9267 H   0  0  0  0  0  0  0  0  0  0  0  0
   46.1114   29.8677   38.0822 H   0  0  0  0  0  0  0  0  0  0  0  0
   45.5207   29.6579   35.2786 H   0  0  0  0  0  0  0  0  0  0  0  0
   46.3682   28.3960   36.1850 H   0  0  0  0  0  0  0  0  0  0  0  0
   43.5437   28.5235   35.2622 H   0  0  0  0  0  0  0  0  0  0  0  0
   44.5294   27.0948   35.6897 H   0  0  0  0  0  0  0  0  0  0  0  0
   42.4735   28.2356   37.2209 H   0  0  0  0  0  0  0  0  0  0  0  0
   43.6664   27.0402   37.7879 H   0  0  0  0  0  0  0  0  0  0  0  0
   44.6208   28.6198   39.1054 H   0  0  0  0  0  0  0  0  0  0  0  0
   43.4074   29.8095   38.5516 H   0  0  0  0  0  0  0  0  0  0  0  0
  1  8  1  0
  2  1  2  0
  3  2  1  0
  4  3  2  0
  4  5  1  0
  5  1  1  0
  6 11  2  0
  7  6  1  0
  8  7  2  0
  8  9  1  0
  9 10  2  0
 10 11  1  0
 10 12  1  0
 12 13  1  0
 13 14  2  0
 15 14  1  0
 16 12  1  0
 16 15  2  0
 17  4  1  0
 18 17  1  0
 19 18  2  0
 20 22  1  0
 20 19  1  0
 21 20  2  0
 22 23  1  0
 23 24  2  0
 23 17  1  0
 25 19  1  0
 25 26  1  0
 26 30  1  0
 27 26  1  0
 28 27  1  0
 28 29  1  0
 29 30  1  0
  2 31  1  0
  3 32  1  0
  6 33  1  0
  7 34  1  0
 14 35  1  0
 15 36  1  0
 16 37  1  0
 18 38  1  0
 22 39  1  0
 25 40  1  0
 25 41  1  0
 26 42  1  0
 27 43  1  0
 27 44  1  0
 28 45  1  0
 28 46  1  0
 29 47  1  0
 29 48  1  0
 30 49  1  0
 30 50  1  0
M  END
>  <Score>  (1) 
-7.02946

$$$$
