
     RDKit          3D

 35 38  0  0  0  0  0  0  0  0999 V2000
   46.9230   34.8330   41.9950 C   0  0  0  0  0  0  0  0  0  0  0  0
   48.2030   35.3360   42.0090 C   0  0  0  0  0  0  0  0  0  0  0  0
   48.9350   35.1960   40.8760 C   0  0  0  0  0  0  0  0  0  0  0  0
   48.4180   34.5920   39.7950 N   0  0  0  0  0  0  0  0  0  0  0  0
   47.1580   34.1020   39.7950 C   0  0  0  0  0  0  0  0  0  0  0  0
   46.4130   34.2370   40.9310 N   0  0  0  0  0  0  0  0  0  0  0  0
   46.6780   33.4740   38.6160 N   0  0  0  0  0  0  0  0  0  0  0  0
   45.6680   32.5900   38.8210 C   0  0  0  0  0  0  0  0  0  0  0  0
   45.0960   31.8960   37.7430 C   0  0  0  0  0  0  0  0  0  0  0  0
   45.6420   32.1920   36.5100 C   0  0  0  0  0  0  0  0  0  0  0  0
   45.1100   31.5520   35.5460 O   0  0  0  0  0  0  0  0  0  0  0  0
   46.6420   33.0650   36.2980 N   0  0  0  0  0  0  0  0  0  0  0  0
   47.1510   33.7020   37.3790 C   0  0  0  0  0  0  0  0  0  0  0  0
   48.0810   34.5250   37.2490 O   0  0  0  0  0  0  0  0  0  0  0  0
   44.4190   36.0770   44.4770 C   0  0  0  0  0  0  0  0  0  0  0  0
   45.1790   36.0010   43.2760 C   0  0  0  0  0  0  0  0  0  0  0  0
   46.1180   34.9660   43.1890 C   0  0  0  0  0  0  0  0  0  0  0  0
   46.2450   34.1070   44.2430 N   0  0  0  0  0  0  0  0  0  0  0  0
   45.4890   34.2350   45.3610 C   0  0  0  0  0  0  0  0  0  0  0  0
   44.5820   35.2110   45.4780 N   0  0  0  0  0  0  0  0  0  0  0  0
   45.6890   33.2790   46.4320 C   0  0  0  0  0  0  0  0  0  0  0  0
   46.5880   32.2470   46.5070 C   0  0  0  0  0  0  0  0  0  0  0  0
   46.4410   31.5990   47.6800 N   0  0  0  0  0  0  0  0  0  0  0  0
   45.4440   32.2120   48.3710 C   0  0  0  0  0  0  0  0  0  0  0  0
   45.0160   33.2160   47.5940 N   0  0  0  0  0  0  0  0  0  0  0  0
   48.6153   35.8306   42.9009 H   0  0  0  0  0  0  0  0  0  0  0  0
   49.9645   35.5820   40.8427 H   0  0  0  0  0  0  0  0  0  0  0  0
   45.2946   32.4160   39.8409 H   0  0  0  0  0  0  0  0  0  0  0  0
   44.2769   31.1730   37.8708 H   0  0  0  0  0  0  0  0  0  0  0  0
   47.0065   33.2423   35.3511 H   0  0  0  0  0  0  0  0  0  0  0  0
   43.6718   36.8772   44.5832 H   0  0  0  0  0  0  0  0  0  0  0  0
   45.0357   36.7203   42.4562 H   0  0  0  0  0  0  0  0  0  0  0  0
   47.3192   31.9868   45.7275 H   0  0  0  0  0  0  0  0  0  0  0  0
   45.0651   31.9390   49.3669 H   0  0  0  0  0  0  0  0  0  0  0  0
   44.2596   33.8640   47.8563 H   0  0  0  0  0  0  0  0  0  0  0  0
  1  2  2  0
  1 17  1  0
  3  2  1  0
  4  3  2  0
  5  4  1  0
  5  6  2  0
  6  1  1  0
  7  8  1  0
  7  5  1  0
  9  8  2  0
 10  9  1  0
 11 10  2  0
 12 10  1  0
 12 13  1  0
 13  7  1  0
 14 13  2  0
 15 20  2  0
 16 15  1  0
 17 16  2  0
 17 18  1  0
 18 19  2  0
 19 20  1  0
 19 21  1  0
 21 22  2  0
 21 25  1  0
 22 23  1  0
 23 24  2  0
 25 24  1  0
  2 26  1  0
  3 27  1  0
  8 28  1  0
  9 29  1  0
 12 30  1  0
 15 31  1  0
 16 32  1  0
 22 33  1  0
 24 34  1  0
 25 35  1  0
M  END
>  <Score>  (1) 
-7.53624

$$$$
