
     RDKit          3D

 50 54  0  0  0  0  0  0  0  0999 V2000
   46.1490   32.0220   47.2830 C   0  0  0  0  0  0  0  0  0  0  0  0
   44.5020   35.0660   46.1640 C   0  0  0  0  0  0  0  0  0  0  0  0
   44.7320   35.0760   44.7850 C   0  0  0  0  0  0  0  0  0  0  0  0
   45.4750   34.0090   44.2130 C   0  0  0  0  0  0  0  0  0  0  0  0
   45.9120   33.0490   45.0480 N   0  0  0  0  0  0  0  0  0  0  0  0
   45.6620   33.0830   46.3900 C   0  0  0  0  0  0  0  0  0  0  0  0
   44.9660   34.0790   46.9330 N   0  0  0  0  0  0  0  0  0  0  0  0
   45.6810   34.0630   42.8240 N   0  0  0  0  0  0  0  0  0  0  0  0
   44.9160   33.9170   41.7490 C   0  0  0  0  0  0  0  0  0  0  0  0
   45.6440   34.0740   40.6250 N   0  0  0  0  0  0  0  0  0  0  0  0
   46.9120   34.3290   40.9890 C   0  0  0  0  0  0  0  0  0  0  0  0
   48.0420   34.5650   40.2240 C   0  0  0  0  0  0  0  0  0  0  0  0
   48.0390   34.5750   38.9900 O   0  0  0  0  0  0  0  0  0  0  0  0
   49.2260   34.8000   40.8330 N   0  0  0  0  0  0  0  0  0  0  0  0
   49.2280   34.7880   42.1770 C   0  0  0  0  0  0  0  0  0  0  0  0
   50.4020   35.0210   42.9330 N   0  0  0  0  0  0  0  0  0  0  0  0
   48.1490   34.5640   42.9160 N   0  0  0  0  0  0  0  0  0  0  0  0
   46.9370   34.3220   42.3690 C   0  0  0  0  0  0  0  0  0  0  0  0
   47.2940   32.5360   48.1410 C   0  0  0  0  0  0  0  0  0  0  0  0
   45.0780   31.4730   48.1860 C   0  0  0  0  0  0  0  0  0  0  0  0
   46.7130   30.9150   46.4050 C   0  0  0  0  0  0  0  0  0  0  0  0
   46.0280   29.5920   46.6730 C   0  0  0  0  0  0  0  0  0  0  0  0
   46.6690   28.6820   47.4420 C   0  0  0  0  0  0  0  0  0  0  0  0
   45.5090   27.2510   47.5130 S   0  0  0  0  0  0  0  0  0  0  0  0
   44.3000   28.2080   46.4220 C   0  0  0  0  0  0  0  0  0  0  0  0
   44.8690   29.2030   46.2490 N   0  0  0  0  0  0  0  0  0  0  0  0
   43.0270   27.5200   46.0810 C   0  0  0  0  0  0  0  0  0  0  0  0
   42.0950   28.0290   45.2070 C   0  0  0  0  0  0  0  0  0  0  0  0
   40.9850   27.2270   45.0330 C   0  0  0  0  0  0  0  0  0  0  0  0
   40.8420   26.0560   45.6680 N   0  0  0  0  0  0  0  0  0  0  0  0
   41.7730   25.5870   46.5160 C   0  0  0  0  0  0  0  0  0  0  0  0
   42.8910   26.3480   46.7190 N   0  0  0  0  0  0  0  0  0  0  0  0
   43.9290   35.8853   46.6227 H   0  0  0  0  0  0  0  0  0  0  0  0
   44.3460   35.8923   44.1567 H   0  0  0  0  0  0  0  0  0  0  0  0
   43.8382   33.6984   41.7720 H   0  0  0  0  0  0  0  0  0  0  0  0
   50.0847   34.9795   40.2932 H   0  0  0  0  0  0  0  0  0  0  0  0
   50.3637   35.0037   43.9621 H   0  0  0  0  0  0  0  0  0  0  0  0
   51.2944   35.2078   42.4539 H   0  0  0  0  0  0  0  0  0  0  0  0
   47.0362   32.4203   49.2041 H   0  0  0  0  0  0  0  0  0  0  0  0
   48.2049   31.9604   47.9199 H   0  0  0  0  0  0  0  0  0  0  0  0
   47.4693   33.5992   47.9199 H   0  0  0  0  0  0  0  0  0  0  0  0
   45.3709   31.6231   49.2356 H   0  0  0  0  0  0  0  0  0  0  0  0
   44.1304   31.9965   47.9913 H   0  0  0  0  0  0  0  0  0  0  0  0
   44.9498   30.3980   47.9913 H   0  0  0  0  0  0  0  0  0  0  0  0
   47.7885   30.8088   46.6102 H   0  0  0  0  0  0  0  0  0  0  0  0
   46.5403   31.1866   45.3531 H   0  0  0  0  0  0  0  0  0  0  0  0
   47.6570   28.7748   47.9166 H   0  0  0  0  0  0  0  0  0  0  0  0
   42.2230   28.9921   44.6911 H   0  0  0  0  0  0  0  0  0  0  0  0
   40.1905   27.5609   44.3494 H   0  0  0  0  0  0  0  0  0  0  0  0
   41.6403   24.6234   47.0296 H   0  0  0  0  0  0  0  0  0  0  0  0
  1 19  1  0
  1 20  1  0
  2  7  2  0
  3  2  1  0
  4  3  2  0
  4  5  1  0
  5  6  2  0
  6  7  1  0
  6  1  1  0
  8  4  1  0
  9  8  1  0
 10 11  1  0
 10  9  2  0
 11 18  2  0
 12 14  1  0
 12 11  1  0
 13 12  2  0
 14 15  1  0
 15 17  2  0
 15 16  1  0
 18  8  1  0
 18 17  1  0
 21 22  1  0
 21  1  1  0
 22 23  2  0
 23 24  1  0
 25 24  1  0
 26 25  2  0
 26 22  1  0
 27 25  1  0
 27 32  1  0
 28 27  2  0
 29 28  1  0
 29 30  2  0
 30 31  1  0
 31 32  2  0
  2 33  1  0
  3 34  1  0
  9 35  1  0
 14 36  1  0
 16 37  1  0
 16 38  1  0
 19 39  1  0
 19 40  1  0
 19 41  1  0
 20 42  1  0
 20 43  1  0
 20 44  1  0
 21 45  1  0
 21 46  1  0
 23 47  1  0
 28 48  1  0
 29 49  1  0
 31 50  1  0
M  END
>  <Score>  (1) 
-7.33119

$$$$
