
     RDKit          3D

 50 53  0  0  1  0  0  0  0  0999 V2000
   40.7640   35.9770   41.0510 C   0  0  0  0  0  0  0  0  0  0  0  0
   40.2090   35.3690   39.8940 C   0  0  0  0  0  0  0  0  0  0  0  0
   40.8350   34.2370   39.3670 C   0  0  0  0  0  0  0  0  0  0  0  0
   41.9350   33.7540   39.9620 N   0  0  0  0  0  0  0  0  0  0  0  0
   42.4410   34.3580   41.0690 C   0  0  0  0  0  0  0  0  0  0  0  0
   41.8650   35.4580   41.6110 N   0  0  0  0  0  0  0  0  0  0  0  0
   40.2900   33.5710   38.1780 C   0  0  2  0  0  0  0  0  0  0  0  0
   39.0360   34.1330   37.6500 C   0  0  0  0  0  0  0  0  0  0  0  0
   37.9240   33.3470   38.3310 C   0  0  0  0  0  0  0  0  0  0  0  0
   38.5200   31.9780   38.5250 C   0  0  0  0  0  0  0  0  0  0  0  0
   39.9860   32.1160   38.3900 C   0  0  1  0  0  0  0  0  0  0  0  0
   40.6440   31.2320   37.4980 N   0  0  0  0  0  0  0  0  0  0  0  0
   41.9450   31.2360   37.1500 C   0  0  0  0  0  0  0  0  0  0  0  0
   42.5250   30.3440   36.2730 C   0  0  0  0  0  0  0  0  0  0  0  0
   43.9830   30.4760   35.9870 C   0  0  0  0  0  0  0  0  0  0  0  0
   41.7470   29.3660   35.6920 C   0  0  0  0  0  0  0  0  0  0  0  0
   42.2770   28.5630   34.8980 O   0  0  0  0  0  0  0  0  0  0  0  0
   40.4450   29.3490   36.0260 N   0  0  0  0  0  0  0  0  0  0  0  0
   39.9380   30.2340   36.8800 C   0  0  0  0  0  0  0  0  0  0  0  0
   38.6890   30.1160   37.1190 O   0  0  0  0  0  0  0  0  0  0  0  0
   43.6350   33.8550   41.7620 C   0  0  0  0  0  0  0  0  0  0  0  0
   43.8770   32.6930   42.4000 N   0  0  0  0  0  0  0  0  0  0  0  0
   45.0950   32.6820   42.8750 O   0  0  0  0  0  0  0  0  0  0  0  0
   45.6880   33.8210   42.5700 C   0  0  0  0  0  0  0  0  0  0  0  0
   44.7740   34.5510   41.8750 N   0  0  0  0  0  0  0  0  0  0  0  0
   47.0400   34.1580   42.9330 C   0  0  0  0  0  0  0  0  0  0  0  0
   47.6530   33.6180   43.8200 O   0  0  0  0  0  0  0  0  0  0  0  0
   47.5440   35.1800   42.1330 N   0  0  0  0  0  0  0  0  0  0  0  0
   48.9400   35.3990   42.3170 C   0  0  0  0  0  0  0  0  0  0  0  0
   49.8560   34.9230   43.0450 N   0  0  0  0  0  0  0  0  0  0  0  0
   49.7120   36.3600   41.5920 N   0  0  0  0  0  0  0  0  0  0  0  0
   49.8340   33.9560   43.3800 H   0  0  0  0  0  0  0  0  0  0  0  0
   40.2920   36.8704   41.4857 H   0  0  0  0  0  0  0  0  0  0  0  0
   39.3046   35.7810   39.4224 H   0  0  0  0  0  0  0  0  0  0  0  0
   41.1119   33.7317   37.4648 H   0  0  0  0  0  0  0  0  0  0  0  0
   38.9590   35.2021   37.8972 H   0  0  0  0  0  0  0  0  0  0  0  0
   38.9813   34.0544   36.5542 H   0  0  0  0  0  0  0  0  0  0  0  0
   37.6592   33.7999   39.2978 H   0  0  0  0  0  0  0  0  0  0  0  0
   36.9947   33.3273   37.7428 H   0  0  0  0  0  0  0  0  0  0  0  0
   38.2680   31.5956   39.5251 H   0  0  0  0  0  0  0  0  0  0  0  0
   38.1243   31.2709   37.7810 H   0  0  0  0  0  0  0  0  0  0  0  0
   40.4361   31.7665   39.3309 H   0  0  0  0  0  0  0  0  0  0  0  0
   42.5910   32.0058   37.5973 H   0  0  0  0  0  0  0  0  0  0  0  0
   44.5394   30.5264   36.9345 H   0  0  0  0  0  0  0  0  0  0  0  0
   44.3234   29.6050   35.4078 H   0  0  0  0  0  0  0  0  0  0  0  0
   44.1614   31.3940   35.4078 H   0  0  0  0  0  0  0  0  0  0  0  0
   39.8273   28.6362   35.6122 H   0  0  0  0  0  0  0  0  0  0  0  0
   46.9665   35.7226   41.4750 H   0  0  0  0  0  0  0  0  0  0  0  0
   50.7194   36.4602   41.7817 H   0  0  0  0  0  0  0  0  0  0  0  0
   49.2606   36.9519   40.8801 H   0  0  0  0  0  0  0  0  0  0  0  0
  1  6  2  0
  2  1  1  0
  3  2  2  0
  3  4  1  0
  4  5  2  0
  5  6  1  0
  5 21  1  0
  7 11  1  0
  7  3  1  0
  8  7  1  0
  8  9  1  0
  9 10  1  0
 11 10  1  0
 12 11  1  0
 13 12  1  0
 14 13  2  0
 15 14  1  0
 16 18  1  0
 16 14  1  0
 17 16  2  0
 18 19  1  0
 19 20  2  0
 19 12  1  0
 21 25  1  0
 21 22  2  0
 22 23  1  0
 24 23  1  0
 24 26  1  0
 25 24  2  0
 26 27  2  0
 28 29  1  0
 28 26  1  0
 29 30  2  0
 30 32  1  0
 31 29  1  0
  1 33  1  0
  2 34  1  0
  7 35  1  6
  8 36  1  0
  8 37  1  0
  9 38  1  0
  9 39  1  0
 10 40  1  0
 10 41  1  0
 11 42  1  1
 13 43  1  0
 15 44  1  0
 15 45  1  0
 15 46  1  0
 18 47  1  0
 28 48  1  0
 31 49  1  0
 31 50  1  0
M  END
>  <Score>  (1) 
-7.11557

$$$$
