
     RDKit          3D

 45 49  0  0  0  0  0  0  0  0999 V2000
   44.5670   34.0750   41.4930 N   0  0  0  0  0  0  0  0  0  0  0  0
   45.5990   33.5050   40.8360 C   0  0  0  0  0  0  0  0  0  0  0  0
   45.4240   33.1480   39.4990 C   0  0  0  0  0  0  0  0  0  0  0  0
   44.1980   33.4020   38.9270 C   0  0  0  0  0  0  0  0  0  0  0  0
   43.9130   33.0860   37.5630 N   0  0  0  0  0  0  0  0  0  0  0  0
   43.1800   33.9700   39.5980 N   0  0  0  0  0  0  0  0  0  0  0  0
   43.3550   34.3200   40.9140 C   0  0  0  0  0  0  0  0  0  0  0  0
   42.4120   34.8520   41.5680 O   0  0  0  0  0  0  0  0  0  0  0  0
   44.5360   35.9710   44.7150 C   0  0  0  0  0  0  0  0  0  0  0  0
   44.3930   35.6900   43.3600 C   0  0  0  0  0  0  0  0  0  0  0  0
   44.6750   34.4470   42.8480 C   0  0  0  0  0  0  0  0  0  0  0  0
   45.0970   33.5180   43.7530 N   0  0  0  0  0  0  0  0  0  0  0  0
   45.2360   33.7810   45.0610 C   0  0  0  0  0  0  0  0  0  0  0  0
   44.9600   34.9980   45.5470 N   0  0  0  0  0  0  0  0  0  0  0  0
   45.6690   32.7750   45.9950 N   0  0  0  0  0  0  0  0  0  0  0  0
   45.7130   32.6430   47.3060 N   0  0  0  0  0  0  0  0  0  0  0  0
   46.2050   31.4620   47.6460 C   0  0  0  0  0  0  0  0  0  0  0  0
   46.4990   30.7870   46.4670 C   0  0  0  0  0  0  0  0  0  0  0  0
   46.1480   31.6490   45.4360 C   0  0  0  0  0  0  0  0  0  0  0  0
   46.8750   33.1000   41.3820 C   0  0  0  0  0  0  0  0  0  0  0  0
   46.9060   31.7410   41.5550 N   0  0  0  0  0  0  0  0  0  0  0  0
   48.0110   31.1250   42.0400 C   0  0  0  0  0  0  0  0  0  0  0  0
   49.1360   31.7990   42.3780 N   0  0  0  0  0  0  0  0  0  0  0  0
   49.1240   33.1320   42.2110 C   0  0  0  0  0  0  0  0  0  0  0  0
   50.2300   33.9160   42.4940 C   0  0  0  0  0  0  0  0  0  0  0  0
   50.1700   35.2850   42.2710 C   0  0  0  0  0  0  0  0  0  0  0  0
   49.0340   35.9230   41.7670 C   0  0  0  0  0  0  0  0  0  0  0  0
   47.9630   35.0990   41.5050 C   0  0  0  0  0  0  0  0  0  0  0  0
   48.0120   33.7570   41.7230 C   0  0  0  0  0  0  0  0  0  0  0  0
   46.4940   32.5380   38.6970 C   0  0  0  0  0  0  0  0  0  0  0  0
   47.7300   33.1030   38.9850 F   0  0  0  0  0  0  0  0  0  0  0  0
   46.1970   32.7310   37.3490 F   0  0  0  0  0  0  0  0  0  0  0  0
   46.4630   31.1800   38.8970 F   0  0  0  0  0  0  0  0  0  0  0  0
   42.9832   33.2912   37.1703 H   0  0  0  0  0  0  0  0  0  0  0  0
   44.6374   32.6530   36.9725 H   0  0  0  0  0  0  0  0  0  0  0  0
   44.3061   36.9743   45.1029 H   0  0  0  0  0  0  0  0  0  0  0  0
   44.0454   36.4831   42.6817 H   0  0  0  0  0  0  0  0  0  0  0  0
   46.3533   31.0857   48.6689 H   0  0  0  0  0  0  0  0  0  0  0  0
   46.9230   29.7766   46.3703 H   0  0  0  0  0  0  0  0  0  0  0  0
   46.2441   31.4477   44.3589 H   0  0  0  0  0  0  0  0  0  0  0  0
   47.9937   30.0322   42.1644 H   0  0  0  0  0  0  0  0  0  0  0  0
   51.1477   33.4582   42.8919 H   0  0  0  0  0  0  0  0  0  0  0  0
   51.0563   35.8944   42.5014 H   0  0  0  0  0  0  0  0  0  0  0  0
   48.9979   37.0083   41.5917 H   0  0  0  0  0  0  0  0  0  0  0  0
   47.0374   35.5399   41.1064 H   0  0  0  0  0  0  0  0  0  0  0  0
  1 11  1  0
  2 20  1  0
  2  1  1  0
  3  2  2  0
  4  3  1  0
  4  6  2  0
  5  4  1  0
  6  7  1  0
  7  1  1  0
  7  8  2  0
  9 14  2  0
 10  9  1  0
 11 10  2  0
 11 12  1  0
 12 13  2  0
 13 14  1  0
 13 15  1  0
 15 16  1  0
 16 17  2  0
 18 17  1  0
 19 15  1  0
 19 18  2  0
 20 21  2  0
 20 29  1  0
 21 22  1  0
 22 23  2  0
 24 23  1  0
 24 25  2  0
 26 25  1  0
 27 26  2  0
 28 29  2  0
 28 27  1  0
 29 24  1  0
 30 33  1  0
 30 31  1  0
 30  3  1  0
 32 30  1  0
  5 34  1  0
  5 35  1  0
  9 36  1  0
 10 37  1  0
 17 38  1  0
 18 39  1  0
 19 40  1  0
 22 41  1  0
 25 42  1  0
 26 43  1  0
 27 44  1  0
 28 45  1  0
M  END
>  <Score>  (1) 
-7.51983

$$$$
