
     RDKit          3D

 50 54  0  0  1  0  0  0  0  0999 V2000
   48.3700   30.9320   48.0430 C   0  0  2  0  0  0  0  0  0  0  0  0
   46.9510   32.1270   46.3360 C   0  0  2  0  0  0  0  0  0  0  0  0
   46.5300   30.6830   46.1730 C   0  0  0  0  0  0  0  0  0  0  0  0
   47.0480   31.1410   47.4680 C   0  0  1  0  0  0  0  0  0  0  0  0
   45.8390   33.1550   46.4520 C   0  0  0  0  0  0  0  0  0  0  0  0
   45.1500   33.0840   47.5330 O   0  0  0  0  0  0  0  0  0  0  0  0
   44.5090   35.9550   44.5560 C   0  0  0  0  0  0  0  0  0  0  0  0
   45.1670   35.8650   43.3270 C   0  0  0  0  0  0  0  0  0  0  0  0
   46.0860   34.8190   43.1830 C   0  0  0  0  0  0  0  0  0  0  0  0
   46.2570   33.9940   44.2360 N   0  0  0  0  0  0  0  0  0  0  0  0
   45.6010   34.1140   45.4090 C   0  0  0  0  0  0  0  0  0  0  0  0
   44.7050   35.1060   45.5980 N   0  0  0  0  0  0  0  0  0  0  0  0
   49.0650   29.7060   47.4930 C   0  0  0  0  0  0  0  0  0  0  0  0
   48.3010   30.7610   49.5360 C   0  0  0  0  0  0  0  0  0  0  0  0
   49.5660   30.3460   50.1670 C   0  0  0  0  0  0  0  0  0  0  0  0
   50.1200   29.1010   50.3140 C   0  0  0  0  0  0  0  0  0  0  0  0
   51.3090   28.9090   50.9260 C   0  0  0  0  0  0  0  0  0  0  0  0
   51.9510   29.9750   51.3970 N   0  0  0  0  0  0  0  0  0  0  0  0
   51.4690   31.2380   51.2910 C   0  0  0  0  0  0  0  0  0  0  0  0
   50.2740   31.3770   50.6690 N   0  0  0  0  0  0  0  0  0  0  0  0
   52.0380   32.5190   51.7460 C   0  0  0  0  0  0  0  0  0  0  0  0
   52.4700   33.4600   50.8530 N   0  0  0  0  0  0  0  0  0  0  0  0
   52.9880   34.6230   51.2110 C   0  0  0  0  0  0  0  0  0  0  0  0
   53.1280   34.9730   52.5150 N   0  0  0  0  0  0  0  0  0  0  0  0
   52.7240   34.1020   53.4830 C   0  0  0  0  0  0  0  0  0  0  0  0
   52.8500   34.4190   54.8180 C   0  0  0  0  0  0  0  0  0  0  0  0
   52.4510   33.5560   55.8040 C   0  0  0  0  0  0  0  0  0  0  0  0
   51.9100   32.3380   55.3780 C   0  0  0  0  0  0  0  0  0  0  0  0
   51.8050   32.0670   54.0320 C   0  0  0  0  0  0  0  0  0  0  0  0
   52.2000   32.9200   53.0470 C   0  0  0  0  0  0  0  0  0  0  0  0
   48.9402   31.8330   47.7727 H   0  0  0  0  0  0  0  0  0  0  0  0
   47.6393   32.8059   45.8113 H   0  0  0  0  0  0  0  0  0  0  0  0
   45.4645   30.4311   46.0667 H   0  0  0  0  0  0  0  0  0  0  0  0
   46.7933   29.8736   45.4762 H   0  0  0  0  0  0  0  0  0  0  0  0
   46.6480   30.9778   48.4796 H   0  0  0  0  0  0  0  0  0  0  0  0
   43.7819   36.7697   44.6891 H   0  0  0  0  0  0  0  0  0  0  0  0
   44.9728   36.5798   42.5138 H   0  0  0  0  0  0  0  0  0  0  0  0
   46.6467   34.6756   42.2476 H   0  0  0  0  0  0  0  0  0  0  0  0
   49.4194   29.0808   48.3258 H   0  0  0  0  0  0  0  0  0  0  0  0
   48.3591   29.1299   46.8766 H   0  0  0  0  0  0  0  0  0  0  0  0
   49.9218   30.0158   46.8766 H   0  0  0  0  0  0  0  0  0  0  0  0
   47.9969   31.7216   49.9773 H   0  0  0  0  0  0  0  0  0  0  0  0
   47.5801   29.9515   49.7231 H   0  0  0  0  0  0  0  0  0  0  0  0
   49.5781   28.2285   49.9203 H   0  0  0  0  0  0  0  0  0  0  0  0
   51.7343   27.9001   51.0319 H   0  0  0  0  0  0  0  0  0  0  0  0
   53.3144   35.3261   50.4305 H   0  0  0  0  0  0  0  0  0  0  0  0
   53.2823   35.3906   55.0993 H   0  0  0  0  0  0  0  0  0  0  0  0
   52.5503   33.8064   56.8705 H   0  0  0  0  0  0  0  0  0  0  0  0
   51.5691   31.5981   56.1171 H   0  0  0  0  0  0  0  0  0  0  0  0
   51.3746   31.0997   53.7335 H   0  0  0  0  0  0  0  0  0  0  0  0
  1 14  1  0
  2  5  1  0
  2  4  1  0
  3  2  1  0
  3  4  1  0
  4  1  1  0
  5  6  2  0
  7 12  2  0
  8  7  1  0
  9  8  2  0
  9 10  1  0
 10 11  2  0
 11 12  1  0
 11  5  1  0
 13  1  1  0
 14 15  1  0
 15 16  2  0
 15 20  1  0
 16 17  1  0
 17 18  2  0
 19 18  1  0
 19 21  1  0
 20 19  2  0
 21 30  2  0
 22 23  2  0
 22 21  1  0
 23 24  1  0
 24 25  2  0
 25 26  1  0
 26 27  2  0
 28 27  1  0
 29 28  2  0
 30 25  1  0
 30 29  1  0
  1 31  1  1
  2 32  1  6
  3 33  1  0
  3 34  1  0
  4 35  1  1
  7 36  1  0
  8 37  1  0
  9 38  1  0
 13 39  1  0
 13 40  1  0
 13 41  1  0
 14 42  1  0
 14 43  1  0
 16 44  1  0
 17 45  1  0
 23 46  1  0
 26 47  1  0
 27 48  1  0
 28 49  1  0
 29 50  1  0
M  END
>  <Score>  (1) 
-7.05641

$$$$
