
     RDKit          3D

 49 54  0  0  0  0  0  0  0  0999 V2000
   45.6140   32.8700   47.0410 C   0  0  0  0  0  0  0  0  0  0  0  0
   44.7150   32.8830   47.9260 O   0  0  0  0  0  0  0  0  0  0  0  0
   46.6520   31.8920   47.2880 C   0  0  0  0  0  0  0  0  0  0  0  0
   47.6710   32.1700   48.1950 C   0  0  0  0  0  0  0  0  0  0  0  0
   48.6750   31.2180   48.4100 C   0  0  0  0  0  0  0  0  0  0  0  0
   48.6860   29.9970   47.7410 C   0  0  0  0  0  0  0  0  0  0  0  0
   47.6490   29.7480   46.8390 C   0  0  0  0  0  0  0  0  0  0  0  0
   46.6590   30.6930   46.6330 C   0  0  0  0  0  0  0  0  0  0  0  0
   45.7400   30.0750   45.6930 C   0  0  0  0  0  0  0  0  0  0  0  0
   45.4070   30.3080   44.3790 C   0  0  0  0  0  0  0  0  0  0  0  0
   44.5180   29.4730   43.7470 C   0  0  0  0  0  0  0  0  0  0  0  0
   43.9080   28.3860   44.3320 C   0  0  0  0  0  0  0  0  0  0  0  0
   44.2330   28.1440   45.6460 C   0  0  0  0  0  0  0  0  0  0  0  0
   43.6080   27.0500   46.2030 C   0  0  0  0  0  0  0  0  0  0  0  0
   43.8780   26.7370   47.5150 C   0  0  0  0  0  0  0  0  0  0  0  0
   44.7490   27.4930   48.2560 C   0  0  0  0  0  0  0  0  0  0  0  0
   45.3330   28.5680   47.6270 C   0  0  0  0  0  0  0  0  0  0  0  0
   45.1330   28.9750   46.3110 C   0  0  0  0  0  0  0  0  0  0  0  0
   44.5790   35.6390   44.8850 C   0  0  0  0  0  0  0  0  0  0  0  0
   45.4140   35.5260   43.7490 C   0  0  0  0  0  0  0  0  0  0  0  0
   46.3380   34.4660   43.7620 C   0  0  0  0  0  0  0  0  0  0  0  0
   46.3340   33.6710   44.8480 N   0  0  0  0  0  0  0  0  0  0  0  0
   45.5410   33.7880   45.9120 C   0  0  0  0  0  0  0  0  0  0  0  0
   44.6560   34.7800   45.9320 N   0  0  0  0  0  0  0  0  0  0  0  0
   47.1820   34.3240   42.6370 N   0  0  0  0  0  0  0  0  0  0  0  0
   48.5090   34.5470   42.6230 C   0  0  0  0  0  0  0  0  0  0  0  0
   49.0260   34.3170   41.3750 N   0  0  0  0  0  0  0  0  0  0  0  0
   47.9550   33.9380   40.6130 C   0  0  0  0  0  0  0  0  0  0  0  0
   47.9080   33.5900   39.2860 C   0  0  0  0  0  0  0  0  0  0  0  0
   46.6920   33.2550   38.7940 N   0  0  0  0  0  0  0  0  0  0  0  0
   45.5970   33.2650   39.5660 C   0  0  0  0  0  0  0  0  0  0  0  0
   45.6170   33.6040   40.8720 N   0  0  0  0  0  0  0  0  0  0  0  0
   46.8110   33.9440   41.4040 C   0  0  0  0  0  0  0  0  0  0  0  0
   47.6872   33.1272   48.7368 H   0  0  0  0  0  0  0  0  0  0  0  0
   49.4780   31.4411   49.1279 H   0  0  0  0  0  0  0  0  0  0  0  0
   49.4808   29.2569   47.9161 H   0  0  0  0  0  0  0  0  0  0  0  0
   47.6190   28.7956   46.2894 H   0  0  0  0  0  0  0  0  0  0  0  0
   45.8496   31.1573   43.8378 H   0  0  0  0  0  0  0  0  0  0  0  0
   44.2755   29.6887   42.6960 H   0  0  0  0  0  0  0  0  0  0  0  0
   43.2017   27.7482   43.7802 H   0  0  0  0  0  0  0  0  0  0  0  0
   42.9087   26.4404   45.6119 H   0  0  0  0  0  0  0  0  0  0  0  0
   43.3877   25.8671   47.9764 H   0  0  0  0  0  0  0  0  0  0  0  0
   44.9708   27.2510   49.3059 H   0  0  0  0  0  0  0  0  0  0  0  0
   46.0316   29.1693   48.2272 H   0  0  0  0  0  0  0  0  0  0  0  0
   43.8402   36.4532   44.9208 H   0  0  0  0  0  0  0  0  0  0  0  0
   45.3446   36.2269   42.9040 H   0  0  0  0  0  0  0  0  0  0  0  0
   49.0981   34.8697   43.4941 H   0  0  0  0  0  0  0  0  0  0  0  0
   48.8098   33.5837   38.6562 H   0  0  0  0  0  0  0  0  0  0  0  0
   44.6349   32.9832   39.1132 H   0  0  0  0  0  0  0  0  0  0  0  0
  1  3  1  0
  1  2  2  0
  3  4  2  0
  4  5  1  0
  6  5  2  0
  7  6  1  0
  8  7  2  0
  8  3  1  0
  9 18  1  0
  9  8  1  0
 10  9  2  0
 11 12  2  0
 11 10  1  0
 12 13  1  0
 13 14  1  0
 13 18  2  0
 14 15  2  0
 15 16  1  0
 17 16  2  0
 18 17  1  0
 19 24  2  0
 20 21  2  0
 20 19  1  0
 21 22  1  0
 22 23  2  0
 23 24  1  0
 23  1  1  0
 25 21  1  0
 26 25  1  0
 27 26  2  0
 28 27  1  0
 28 33  2  0
 29 28  1  0
 30 29  2  0
 30 31  1  0
 31 32  2  0
 32 33  1  0
 33 25  1  0
  4 34  1  0
  5 35  1  0
  6 36  1  0
  7 37  1  0
 10 38  1  0
 11 39  1  0
 12 40  1  0
 14 41  1  0
 15 42  1  0
 16 43  1  0
 17 44  1  0
 19 45  1  0
 20 46  1  0
 26 47  1  0
 29 48  1  0
 31 49  1  0
M  END
>  <Score>  (1) 
-7.09879

$$$$
