
     RDKit          3D

 51 56  0  0  0  0  0  0  0  0999 V2000
   45.1130   33.8620   41.7310 C   0  0  0  0  0  0  0  0  0  0  0  0
   44.0070   33.4580   41.0410 C   0  0  0  0  0  0  0  0  0  0  0  0
   44.7170   33.1450   39.3530 S   0  0  0  0  0  0  0  0  0  0  0  0
   46.4290   33.6350   39.9140 C   0  0  0  0  0  0  0  0  0  0  0  0
   46.2180   33.8880   41.0110 N   0  0  0  0  0  0  0  0  0  0  0  0
   44.4840   35.8100   44.8950 C   0  0  0  0  0  0  0  0  0  0  0  0
   44.5300   35.4810   43.5500 C   0  0  0  0  0  0  0  0  0  0  0  0
   45.0530   34.2360   43.1660 C   0  0  0  0  0  0  0  0  0  0  0  0
   45.4910   33.4090   44.1390 N   0  0  0  0  0  0  0  0  0  0  0  0
   45.4390   33.7430   45.4350 C   0  0  0  0  0  0  0  0  0  0  0  0
   44.9440   34.9230   45.8060 N   0  0  0  0  0  0  0  0  0  0  0  0
   45.9240   32.8150   46.4320 C   0  0  0  0  0  0  0  0  0  0  0  0
   46.9630   31.9290   46.1230 C   0  0  0  0  0  0  0  0  0  0  0  0
   47.4750   31.0210   47.0180 C   0  0  0  0  0  0  0  0  0  0  0  0
   46.9740   30.9650   48.2390 N   0  0  0  0  0  0  0  0  0  0  0  0
   45.9720   31.8150   48.5480 C   0  0  0  0  0  0  0  0  0  0  0  0
   45.4380   32.7300   47.6850 N   0  0  0  0  0  0  0  0  0  0  0  0
   45.2970   31.9070   49.8220 N   0  0  0  0  0  0  0  0  0  0  0  0
   47.5570   33.6070   38.9810 C   0  0  0  0  0  0  0  0  0  0  0  0
   47.8530   32.1960   38.5640 C   0  0  0  0  0  0  0  0  0  0  0  0
   47.6950   32.1510   37.0660 C   0  0  0  0  0  0  0  0  0  0  0  0
   48.6830   32.8620   36.4020 C   0  0  0  0  0  0  0  0  0  0  0  0
   48.5990   32.8660   35.0210 C   0  0  0  0  0  0  0  0  0  0  0  0
   47.6480   32.2370   34.3670 N   0  0  0  0  0  0  0  0  0  0  0  0
   46.6960   31.5510   35.0470 C   0  0  0  0  0  0  0  0  0  0  0  0
   46.7560   31.5330   36.3700 N   0  0  0  0  0  0  0  0  0  0  0  0
   45.5970   30.8160   34.5030 N   0  0  0  0  0  0  0  0  0  0  0  0
   44.3170   30.9330   34.9440 C   0  0  0  0  0  0  0  0  0  0  0  0
   43.4730   30.1240   34.2570 N   0  0  0  0  0  0  0  0  0  0  0  0
   44.2560   29.4810   33.3550 C   0  0  0  0  0  0  0  0  0  0  0  0
   44.0590   28.5440   32.3680 C   0  0  0  0  0  0  0  0  0  0  0  0
   45.0420   28.0650   31.5980 N   0  0  0  0  0  0  0  0  0  0  0  0
   46.3140   28.5140   31.7840 C   0  0  0  0  0  0  0  0  0  0  0  0
   46.5670   29.4320   32.7360 N   0  0  0  0  0  0  0  0  0  0  0  0
   45.5600   29.9080   33.5080 C   0  0  0  0  0  0  0  0  0  0  0  0
   42.9702   33.3471   41.3914 H   0  0  0  0  0  0  0  0  0  0  0  0
   44.0785   36.7803   45.2176 H   0  0  0  0  0  0  0  0  0  0  0  0
   44.1610   36.1872   42.7916 H   0  0  0  0  0  0  0  0  0  0  0  0
   47.3919   31.9615   45.1106 H   0  0  0  0  0  0  0  0  0  0  0  0
   48.2930   30.3481   46.7211 H   0  0  0  0  0  0  0  0  0  0  0  0
   44.5408   32.5934   49.9558 H   0  0  0  0  0  0  0  0  0  0  0  0
   45.5720   31.2862   50.5965 H   0  0  0  0  0  0  0  0  0  0  0  0
   47.3069   34.2035   38.0912 H   0  0  0  0  0  0  0  0  0  0  0  0
   48.4437   34.0265   39.4788 H   0  0  0  0  0  0  0  0  0  0  0  0
   48.8808   31.9239   38.8461 H   0  0  0  0  0  0  0  0  0  0  0  0
   47.1744   31.4845   39.0573 H   0  0  0  0  0  0  0  0  0  0  0  0
   49.4840   33.3902   36.9399 H   0  0  0  0  0  0  0  0  0  0  0  0
   49.3584   33.4176   34.4474 H   0  0  0  0  0  0  0  0  0  0  0  0
   44.0037   31.6023   35.7588 H   0  0  0  0  0  0  0  0  0  0  0  0
   43.0384   28.1684   32.2030 H   0  0  0  0  0  0  0  0  0  0  0  0
   47.1323   28.1280   31.1585 H   0  0  0  0  0  0  0  0  0  0  0  0
  1  8  1  0
  2  1  2  0
  3  4  1  0
  3  2  1  0
  4  5  2  0
  5  1  1  0
  6 11  2  0
  7  6  1  0
  8  7  2  0
  8  9  1  0
  9 10  2  0
 10 11  1  0
 10 12  1  0
 12 17  1  0
 13 12  2  0
 13 14  1  0
 14 15  2  0
 15 16  1  0
 16 18  1  0
 17 16  2  0
 19  4  1  0
 20 19  1  0
 21 20  1  0
 22 21  2  0
 23 22  1  0
 24 23  2  0
 24 25  1  0
 25 26  2  0
 26 21  1  0
 27 28  1  0
 27 25  1  0
 29 28  2  0
 30 35  2  0
 30 29  1  0
 31 30  1  0
 32 33  1  0
 32 31  2  0
 33 34  2  0
 34 35  1  0
 35 27  1  0
  2 36  1  0
  6 37  1  0
  7 38  1  0
 13 39  1  0
 14 40  1  0
 18 41  1  0
 18 42  1  0
 19 43  1  0
 19 44  1  0
 20 45  1  0
 20 46  1  0
 22 47  1  0
 23 48  1  0
 28 49  1  0
 31 50  1  0
 33 51  1  0
M  END
>  <Score>  (1) 
-7.34312

$$$$
