
     RDKit          3D

 32 35  0  0  0  0  0  0  0  0999 V2000
   44.5910   35.7970   44.3090 C   0  0  0  0  0  0  0  0  0  0  0  0
   45.3740   35.7920   43.1480 C   0  0  0  0  0  0  0  0  0  0  0  0
   46.4110   34.8760   43.0650 C   0  0  0  0  0  0  0  0  0  0  0  0
   46.6310   34.0120   44.1100 N   0  0  0  0  0  0  0  0  0  0  0  0
   45.8560   34.0390   45.2200 C   0  0  0  0  0  0  0  0  0  0  0  0
   44.8390   34.9250   45.3240 N   0  0  0  0  0  0  0  0  0  0  0  0
   46.0990   33.1380   46.2950 N   0  0  0  0  0  0  0  0  0  0  0  0
   47.0990   32.2230   46.2470 C   0  0  0  0  0  0  0  0  0  0  0  0
   47.3150   31.3510   47.3150 C   0  0  0  0  0  0  0  0  0  0  0  0
   46.4600   31.4830   48.3900 C   0  0  0  0  0  0  0  0  0  0  0  0
   46.6260   30.6310   49.5030 N   0  0  0  0  0  0  0  0  0  0  0  0
   45.4680   32.4000   48.4260 N   0  0  0  0  0  0  0  0  0  0  0  0
   45.2820   33.2340   47.3710 C   0  0  0  0  0  0  0  0  0  0  0  0
   44.3420   34.0720   47.4500 O   0  0  0  0  0  0  0  0  0  0  0  0
   47.2010   34.8800   41.8800 N   0  0  0  0  0  0  0  0  0  0  0  0
   48.3870   35.5330   41.7440 C   0  0  0  0  0  0  0  0  0  0  0  0
   48.8810   35.3290   40.4840 N   0  0  0  0  0  0  0  0  0  0  0  0
   47.9790   34.5390   39.8530 C   0  0  0  0  0  0  0  0  0  0  0  0
   47.9780   34.0300   38.5710 C   0  0  0  0  0  0  0  0  0  0  0  0
   46.9280   33.2570   38.2050 N   0  0  0  0  0  0  0  0  0  0  0  0
   45.9200   32.9980   39.0700 C   0  0  0  0  0  0  0  0  0  0  0  0
   45.8820   33.4790   40.3380 N   0  0  0  0  0  0  0  0  0  0  0  0
   46.9220   34.2530   40.7220 C   0  0  0  0  0  0  0  0  0  0  0  0
   43.7637   36.5160   44.4019 H   0  0  0  0  0  0  0  0  0  0  0  0
   45.1720   36.4944   42.3259 H   0  0  0  0  0  0  0  0  0  0  0  0
   47.7453   32.1677   45.3586 H   0  0  0  0  0  0  0  0  0  0  0  0
   48.1203   30.6018   47.3007 H   0  0  0  0  0  0  0  0  0  0  0  0
   45.9971   30.7152   50.3144 H   0  0  0  0  0  0  0  0  0  0  0  0
   47.3760   29.9251   49.5038 H   0  0  0  0  0  0  0  0  0  0  0  0
   48.8741   36.1329   42.5268 H   0  0  0  0  0  0  0  0  0  0  0  0
   48.7997   34.2441   37.8717 H   0  0  0  0  0  0  0  0  0  0  0  0
   45.0884   32.3647   38.7273 H   0  0  0  0  0  0  0  0  0  0  0  0
  1  6  2  0
  2  1  1  0
  3  2  2  0
  3  4  1  0
  4  5  2  0
  5  6  1  0
  5  7  1  0
  7 13  1  0
  8  7  1  0
  8  9  2  0
  9 10  1  0
 10 12  2  0
 10 11  1  0
 13 14  2  0
 13 12  1  0
 15  3  1  0
 16 15  1  0
 17 16  2  0
 18 17  1  0
 18 23  2  0
 19 18  1  0
 20 19  2  0
 20 21  1  0
 21 22  2  0
 22 23  1  0
 23 15  1  0
  1 24  1  0
  2 25  1  0
  8 26  1  0
  9 27  1  0
 11 28  1  0
 11 29  1  0
 16 30  1  0
 19 31  1  0
 21 32  1  0
M  END
>  <Score>  (1) 
-7.22658

$$$$
