
     RDKit          3D

 48 53  0  0  0  0  0  0  0  0999 V2000
   46.5810   34.6920   42.1840 C   0  0  0  0  0  0  0  0  0  0  0  0
   47.7870   35.3140   42.0140 C   0  0  0  0  0  0  0  0  0  0  0  0
   48.5290   35.1740   40.8360 C   0  0  0  0  0  0  0  0  0  0  0  0
   48.0160   34.3690   39.8010 C   0  0  0  0  0  0  0  0  0  0  0  0
   46.7970   33.7410   39.9790 C   0  0  0  0  0  0  0  0  0  0  0  0
   46.1090   33.9140   41.1570 C   0  0  0  0  0  0  0  0  0  0  0  0
   44.8460   33.2510   41.3100 N   0  0  0  0  0  0  0  0  0  0  0  0
   44.6190   31.9920   41.7580 C   0  0  0  0  0  0  0  0  0  0  0  0
   43.3380   31.5130   41.8420 C   0  0  0  0  0  0  0  0  0  0  0  0
   42.2690   32.2820   41.4820 C   0  0  0  0  0  0  0  0  0  0  0  0
   41.1030   31.8000   41.5750 O   0  0  0  0  0  0  0  0  0  0  0  0
   42.5150   33.5470   41.0340 N   0  0  0  0  0  0  0  0  0  0  0  0
   43.7640   34.0100   40.9520 C   0  0  0  0  0  0  0  0  0  0  0  0
   43.8700   35.1940   40.5230 O   0  0  0  0  0  0  0  0  0  0  0  0
   41.3820   34.3120   40.6690 C   0  0  0  0  0  0  0  0  0  0  0  0
   41.3250   35.6470   41.0150 C   0  0  0  0  0  0  0  0  0  0  0  0
   40.1150   36.1530   40.5390 C   0  0  0  0  0  0  0  0  0  0  0  0
   39.4830   35.1120   39.9240 N   0  0  0  0  0  0  0  0  0  0  0  0
   40.2310   34.0360   40.0040 N   0  0  0  0  0  0  0  0  0  0  0  0
   44.4470   36.0660   44.9750 C   0  0  0  0  0  0  0  0  0  0  0  0
   45.0740   35.9670   43.7270 C   0  0  0  0  0  0  0  0  0  0  0  0
   45.8840   34.8960   43.4380 C   0  0  0  0  0  0  0  0  0  0  0  0
   46.0480   33.9430   44.4090 N   0  0  0  0  0  0  0  0  0  0  0  0
   45.4320   34.0530   45.6160 C   0  0  0  0  0  0  0  0  0  0  0  0
   44.6470   35.0910   45.8970 N   0  0  0  0  0  0  0  0  0  0  0  0
   45.6490   33.0240   46.5760 N   0  0  0  0  0  0  0  0  0  0  0  0
   45.2610   33.0180   47.8640 C   0  0  0  0  0  0  0  0  0  0  0  0
   45.6410   31.8670   48.4870 N   0  0  0  0  0  0  0  0  0  0  0  0
   46.2920   31.1150   47.5650 C   0  0  0  0  0  0  0  0  0  0  0  0
   46.8870   29.8690   47.6340 C   0  0  0  0  0  0  0  0  0  0  0  0
   47.4800   29.3550   46.5170 N   0  0  0  0  0  0  0  0  0  0  0  0
   47.4560   30.0950   45.3930 C   0  0  0  0  0  0  0  0  0  0  0  0
   46.8800   31.3210   45.2880 N   0  0  0  0  0  0  0  0  0  0  0  0
   46.2820   31.8560   46.3900 C   0  0  0  0  0  0  0  0  0  0  0  0
   48.1845   35.9414   42.8254 H   0  0  0  0  0  0  0  0  0  0  0  0
   49.4967   35.6842   40.7205 H   0  0  0  0  0  0  0  0  0  0  0  0
   48.5773   34.2414   38.8636 H   0  0  0  0  0  0  0  0  0  0  0  0
   46.3800   33.1067   39.1829 H   0  0  0  0  0  0  0  0  0  0  0  0
   45.4645   31.3539   42.0546 H   0  0  0  0  0  0  0  0  0  0  0  0
   43.1677   30.4892   42.2065 H   0  0  0  0  0  0  0  0  0  0  0  0
   42.0934   36.2094   41.5656 H   0  0  0  0  0  0  0  0  0  0  0  0
   39.7450   37.1840   40.6394 H   0  0  0  0  0  0  0  0  0  0  0  0
   38.5611   35.1625   39.4673 H   0  0  0  0  0  0  0  0  0  0  0  0
   43.7994   36.9248   45.2054 H   0  0  0  0  0  0  0  0  0  0  0  0
   44.9168   36.7522   42.9729 H   0  0  0  0  0  0  0  0  0  0  0  0
   44.7090   33.8355   48.3509 H   0  0  0  0  0  0  0  0  0  0  0  0
   46.8826   29.3000   48.5754 H   0  0  0  0  0  0  0  0  0  0  0  0
   47.9367   29.6776   44.4959 H   0  0  0  0  0  0  0  0  0  0  0  0
  1 22  1  0
  2  1  2  0
  3  2  1  0
  4  5  1  0
  4  3  2  0
  5  6  2  0
  6  7  1  0
  6  1  1  0
  7  8  1  0
  8  9  2  0
 10 11  2  0
 10  9  1  0
 12 10  1  0
 13 12  1  0
 13  7  1  0
 14 13  2  0
 15 16  1  0
 15 12  1  0
 17 16  2  0
 18 19  1  0
 18 17  1  0
 19 15  2  0
 20 25  2  0
 21 20  1  0
 22 21  2  0
 22 23  1  0
 23 24  2  0
 24 25  1  0
 24 26  1  0
 26 27  1  0
 27 28  2  0
 29 30  2  0
 29 28  1  0
 31 30  1  0
 32 31  2  0
 33 32  1  0
 33 34  2  0
 34 26  1  0
 34 29  1  0
  2 35  1  0
  3 36  1  0
  4 37  1  0
  5 38  1  0
  8 39  1  0
  9 40  1  0
 16 41  1  0
 17 42  1  0
 18 43  1  0
 20 44  1  0
 21 45  1  0
 27 46  1  0
 30 47  1  0
 32 48  1  0
M  END
>  <Score>  (1) 
-9.44443

$$$$
