
     RDKit          3D

 46 50  0  0  1  0  0  0  0  0999 V2000
   46.9740   34.7200   42.1110 N   0  0  0  0  0  0  0  0  0  0  0  0
   48.4010   34.8470   42.2310 C   0  0  0  0  0  0  0  0  0  0  0  0
   49.0900   34.1330   41.1130 C   0  0  0  0  0  0  0  0  0  0  0  0
   48.5040   34.6390   39.8720 N   0  0  0  0  0  0  0  0  0  0  0  0
   47.2230   33.9950   39.7820 C   0  0  0  0  0  0  0  0  0  0  0  0
   46.2860   34.4390   40.8850 C   0  0  1  0  0  0  0  0  0  0  0  0
   44.5040   36.0070   44.6020 C   0  0  0  0  0  0  0  0  0  0  0  0
   45.2500   35.9230   43.4260 C   0  0  0  0  0  0  0  0  0  0  0  0
   46.1740   34.8780   43.2780 C   0  0  0  0  0  0  0  0  0  0  0  0
   46.2610   34.0120   44.3320 N   0  0  0  0  0  0  0  0  0  0  0  0
   45.5390   34.1100   45.4480 C   0  0  0  0  0  0  0  0  0  0  0  0
   44.6640   35.1020   45.5850 N   0  0  0  0  0  0  0  0  0  0  0  0
   45.7810   33.0990   46.4370 N   0  0  0  0  0  0  0  0  0  0  0  0
   45.1580   33.2860   47.6160 C   0  0  0  0  0  0  0  0  0  0  0  0
   45.3710   32.3280   48.5880 C   0  0  0  0  0  0  0  0  0  0  0  0
   46.1980   31.2700   48.2690 C   0  0  0  0  0  0  0  0  0  0  0  0
   46.3950   30.3040   49.2960 N   0  0  0  0  0  0  0  0  0  0  0  0
   46.7980   31.1340   47.0680 N   0  0  0  0  0  0  0  0  0  0  0  0
   46.5900   32.0780   46.1040 C   0  0  0  0  0  0  0  0  0  0  0  0
   47.1010   32.0450   44.9540 O   0  0  0  0  0  0  0  0  0  0  0  0
   45.1860   33.5300   41.0100 N   0  0  0  0  0  0  0  0  0  0  0  0
   45.1830   32.2350   41.3280 C   0  0  0  0  0  0  0  0  0  0  0  0
   43.9350   31.7040   41.3480 N   0  0  0  0  0  0  0  0  0  0  0  0
   43.0790   32.7010   41.0280 C   0  0  0  0  0  0  0  0  0  0  0  0
   41.7140   32.8320   40.8740 C   0  0  0  0  0  0  0  0  0  0  0  0
   41.1730   34.0270   40.5330 N   0  0  0  0  0  0  0  0  0  0  0  0
   41.9790   35.0840   40.3450 C   0  0  0  0  0  0  0  0  0  0  0  0
   43.3120   34.9970   40.4840 N   0  0  0  0  0  0  0  0  0  0  0  0
   43.8720   33.8070   40.8260 C   0  0  0  0  0  0  0  0  0  0  0  0
   48.6726   35.9125   42.2009 H   0  0  0  0  0  0  0  0  0  0  0  0
   48.7173   34.3997   43.1849 H   0  0  0  0  0  0  0  0  0  0  0  0
   50.1695   34.3428   41.1365 H   0  0  0  0  0  0  0  0  0  0  0  0
   48.9613   33.0439   41.1980 H   0  0  0  0  0  0  0  0  0  0  0  0
   48.3936   35.6622   39.9136 H   0  0  0  0  0  0  0  0  0  0  0  0
   46.7695   34.2408   38.8105 H   0  0  0  0  0  0  0  0  0  0  0  0
   47.3797   32.9111   39.8853 H   0  0  0  0  0  0  0  0  0  0  0  0
   45.8480   35.4076   40.6020 H   0  0  0  0  0  0  0  0  0  0  0  0
   43.7765   36.8225   44.7271 H   0  0  0  0  0  0  0  0  0  0  0  0
   45.1155   36.6659   42.6260 H   0  0  0  0  0  0  0  0  0  0  0  0
   44.5119   34.1579   47.7960 H   0  0  0  0  0  0  0  0  0  0  0  0
   44.8994   32.4053   49.5788 H   0  0  0  0  0  0  0  0  0  0  0  0
   47.0004   29.4881   49.1264 H   0  0  0  0  0  0  0  0  0  0  0  0
   45.9321   30.4209   50.2087 H   0  0  0  0  0  0  0  0  0  0  0  0
   46.0939   31.6597   41.5500 H   0  0  0  0  0  0  0  0  0  0  0  0
   41.0606   31.9608   41.0290 H   0  0  0  0  0  0  0  0  0  0  0  0
   41.5339   36.0512   40.0686 H   0  0  0  0  0  0  0  0  0  0  0  0
  1  2  1  0
  1  9  1  0
  3  2  1  0
  4  3  1  0
  5  4  1  0
  5  6  1  0
  6 21  1  0
  6  1  1  0
  7 12  2  0
  8  7  1  0
  9  8  2  0
  9 10  1  0
 10 11  2  0
 11 12  1  0
 11 13  1  0
 13 14  1  0
 14 15  2  0
 16 15  1  0
 16 17  1  0
 18 16  2  0
 19 13  1  0
 19 18  1  0
 20 19  2  0
 21 22  1  0
 22 23  2  0
 24 23  1  0
 25 24  2  0
 26 25  1  0
 27 28  1  0
 27 26  2  0
 28 29  2  0
 29 21  1  0
 29 24  1  0
  2 30  1  0
  2 31  1  0
  3 32  1  0
  3 33  1  0
  4 34  1  0
  5 35  1  0
  5 36  1  0
  6 37  1  6
  7 38  1  0
  8 39  1  0
 14 40  1  0
 15 41  1  0
 17 42  1  0
 17 43  1  0
 22 44  1  0
 25 45  1  0
 27 46  1  0
M  END
>  <Score>  (1) 
-7.74709

$$$$
