
     RDKit          3D

 52 56  0  0  1  0  0  0  0  0999 V2000
   43.9390   34.3190   40.5520 C   0  0  2  0  0  0  0  0  0  0  0  0
   42.3850   34.4730   40.5560 C   0  0  0  0  0  0  0  0  0  0  0  0
   42.2300   34.9630   39.1080 C   0  0  0  0  0  0  0  0  0  0  0  0
   43.1490   34.0670   38.3720 C   0  0  0  0  0  0  0  0  0  0  0  0
   44.0820   33.4290   39.4150 C   0  0  1  0  0  0  0  0  0  0  0  0
   45.4000   33.2700   38.8500 N   0  0  0  0  0  0  0  0  0  0  0  0
   46.5490   33.3090   39.5540 C   0  0  0  0  0  0  0  0  0  0  0  0
   47.5970   33.1370   38.7510 N   0  0  0  0  0  0  0  0  0  0  0  0
   47.0870   32.9850   37.5110 C   0  0  0  0  0  0  0  0  0  0  0  0
   47.7650   32.7840   36.3290 C   0  0  0  0  0  0  0  0  0  0  0  0
   49.0350   32.7110   36.2990 O   0  0  0  0  0  0  0  0  0  0  0  0
   47.0250   32.6680   35.2140 N   0  0  0  0  0  0  0  0  0  0  0  0
   45.6620   32.7460   35.2440 C   0  0  0  0  0  0  0  0  0  0  0  0
   45.0040   32.6170   33.9940 N   0  0  0  0  0  0  0  0  0  0  0  0
   45.0360   32.9450   36.4340 N   0  0  0  0  0  0  0  0  0  0  0  0
   45.7210   33.0680   37.5750 C   0  0  0  0  0  0  0  0  0  0  0  0
   45.1010   34.8340   42.6570 C   0  0  0  0  0  0  0  0  0  0  0  0
   44.4620   33.8770   41.8430 C   0  0  0  0  0  0  0  0  0  0  0  0
   44.3570   32.5410   42.2800 C   0  0  0  0  0  0  0  0  0  0  0  0
   44.8880   32.2260   43.4900 N   0  0  0  0  0  0  0  0  0  0  0  0
   45.5070   33.1790   44.2630 C   0  0  0  0  0  0  0  0  0  0  0  0
   45.6090   34.4620   43.8480 N   0  0  0  0  0  0  0  0  0  0  0  0
   46.0350   32.7270   45.5310 N   0  0  0  0  0  0  0  0  0  0  0  0
   47.0410   31.6850   45.5000 C   0  0  0  0  0  0  0  0  0  0  0  0
   47.0690   30.8140   46.7110 C   0  0  0  0  0  0  0  0  0  0  0  0
   45.8330   31.0740   47.5300 C   0  0  0  0  0  0  0  0  0  0  0  0
   45.7230   32.5330   47.9300 C   0  0  0  0  0  0  0  0  0  0  0  0
   45.4820   33.3850   46.7040 C   0  0  0  0  0  0  0  0  0  0  0  0
   44.5411   35.2324   40.4376 H   0  0  0  0  0  0  0  0  0  0  0  0
   41.8697   33.5173   40.7324 H   0  0  0  0  0  0  0  0  0  0  0  0
   41.9605   35.1195   41.3382 H   0  0  0  0  0  0  0  0  0  0  0  0
   41.1941   34.8468   38.7568 H   0  0  0  0  0  0  0  0  0  0  0  0
   42.4579   36.0312   38.9776 H   0  0  0  0  0  0  0  0  0  0  0  0
   42.5775   33.2866   37.8481 H   0  0  0  0  0  0  0  0  0  0  0  0
   43.7241   34.6256   37.6188 H   0  0  0  0  0  0  0  0  0  0  0  0
   43.8491   32.4026   39.7349 H   0  0  0  0  0  0  0  0  0  0  0  0
   46.6120   33.4618   40.6415 H   0  0  0  0  0  0  0  0  0  0  0  0
   47.4985   32.5161   34.3120 H   0  0  0  0  0  0  0  0  0  0  0  0
   43.9763   32.6664   33.9454 H   0  0  0  0  0  0  0  0  0  0  0  0
   45.5539   32.4739   33.1349 H   0  0  0  0  0  0  0  0  0  0  0  0
   45.1844   35.8784   42.3218 H   0  0  0  0  0  0  0  0  0  0  0  0
   43.8613   31.7784   41.6614 H   0  0  0  0  0  0  0  0  0  0  0  0
   46.8491   31.0485   44.6237 H   0  0  0  0  0  0  0  0  0  0  0  0
   48.0157   32.1932   45.4583 H   0  0  0  0  0  0  0  0  0  0  0  0
   47.0933   29.7577   46.4051 H   0  0  0  0  0  0  0  0  0  0  0  0
   47.9649   31.0373   47.3089 H   0  0  0  0  0  0  0  0  0  0  0  0
   44.9480   30.7989   46.9374 H   0  0  0  0  0  0  0  0  0  0  0  0
   45.8957   30.4702   48.4474 H   0  0  0  0  0  0  0  0  0  0  0  0
   44.8845   32.6570   48.6311 H   0  0  0  0  0  0  0  0  0  0  0  0
   46.6600   32.8484   48.4123 H   0  0  0  0  0  0  0  0  0  0  0  0
   45.9679   34.3628   46.8374 H   0  0  0  0  0  0  0  0  0  0  0  0
   44.3997   33.5250   46.5658 H   0  0  0  0  0  0  0  0  0  0  0  0
  1  2  1  0
  1 18  1  0
  3  2  1  0
  4  3  1  0
  4  5  1  0
  5  1  1  0
  6  5  1  0
  6  7  1  0
  8  7  2  0
  9 16  2  0
  9  8  1  0
 10  9  1  0
 11 10  2  0
 12 13  1  0
 12 10  1  0
 13 15  2  0
 14 13  1  0
 15 16  1  0
 16  6  1  0
 17 22  2  0
 18 19  2  0
 18 17  1  0
 19 20  1  0
 20 21  2  0
 21 23  1  0
 22 21  1  0
 23 28  1  0
 24 23  1  0
 24 25  1  0
 25 26  1  0
 26 27  1  0
 28 27  1  0
  1 29  1  6
  2 30  1  0
  2 31  1  0
  3 32  1  0
  3 33  1  0
  4 34  1  0
  4 35  1  0
  5 36  1  1
  7 37  1  0
 12 38  1  0
 14 39  1  0
 14 40  1  0
 17 41  1  0
 19 42  1  0
 24 43  1  0
 24 44  1  0
 25 45  1  0
 25 46  1  0
 26 47  1  0
 26 48  1  0
 27 49  1  0
 27 50  1  0
 28 51  1  0
 28 52  1  0
M  END
>  <Score>  (1) 
-7.00048

$$$$
