
     RDKit          3D

 30 32  0  0  0  0  0  0  0  0999 V2000
   44.5660   35.8080   44.6170 C   0  0  0  0  0  0  0  0  0  0  0  0
   45.1760   35.8460   43.3620 C   0  0  0  0  0  0  0  0  0  0  0  0
   46.1100   34.8780   43.1380 C   0  0  0  0  0  0  0  0  0  0  0  0
   46.4060   33.9550   44.0860 N   0  0  0  0  0  0  0  0  0  0  0  0
   45.7750   33.9630   45.3050 C   0  0  0  0  0  0  0  0  0  0  0  0
   44.8390   34.9070   45.5760 N   0  0  0  0  0  0  0  0  0  0  0  0
   46.0590   32.9960   46.3310 C   0  0  0  0  0  0  0  0  0  0  0  0
   45.4020   32.9620   47.5370 C   0  0  0  0  0  0  0  0  0  0  0  0
   45.6280   32.0620   48.5520 C   0  0  0  0  0  0  0  0  0  0  0  0
   46.6050   31.1660   48.2450 C   0  0  0  0  0  0  0  0  0  0  0  0
   47.3210   31.1210   47.0560 C   0  0  0  0  0  0  0  0  0  0  0  0
   46.9910   32.0640   46.1550 N   0  0  0  0  0  0  0  0  0  0  0  0
   44.3880   33.9790   47.7180 N   0  0  0  0  0  0  0  0  0  0  0  0
   46.8310   34.7440   41.9140 C   0  0  0  0  0  0  0  0  0  0  0  0
   48.0700   35.4100   41.6980 C   0  0  0  0  0  0  0  0  0  0  0  0
   48.7990   35.2930   40.4880 C   0  0  0  0  0  0  0  0  0  0  0  0
   48.2370   34.4720   39.4860 C   0  0  0  0  0  0  0  0  0  0  0  0
   46.9980   33.7860   39.6580 C   0  0  0  0  0  0  0  0  0  0  0  0
   46.9120   34.2640   40.7890 N   0  0  0  0  0  0  0  0  0  0  0  0
   43.8058   36.5719   44.8372 H   0  0  0  0  0  0  0  0  0  0  0  0
   44.9211   36.6038   42.6065 H   0  0  0  0  0  0  0  0  0  0  0  0
   45.0800   32.0660   49.5058 H   0  0  0  0  0  0  0  0  0  0  0  0
   46.8493   30.4103   49.0061 H   0  0  0  0  0  0  0  0  0  0  0  0
   48.1010   30.3693   46.8648 H   0  0  0  0  0  0  0  0  0  0  0  0
   43.8508   34.0201   48.5958 H   0  0  0  0  0  0  0  0  0  0  0  0
   44.2037   34.6615   46.9690 H   0  0  0  0  0  0  0  0  0  0  0  0
   48.4780   36.0405   42.5018 H   0  0  0  0  0  0  0  0  0  0  0  0
   49.7550   35.8158   40.3371 H   0  0  0  0  0  0  0  0  0  0  0  0
   48.7764   34.3567   38.5343 H   0  0  0  0  0  0  0  0  0  0  0  0
   46.3815   33.1150   39.0418 H   0  0  0  0  0  0  0  0  0  0  0  0
  1  6  2  0
  2  1  1  0
  3  2  2  0
  3  4  1  0
  4  5  2  0
  5  6  1  0
  5  7  1  0
  7  8  2  0
  8 13  1  0
  8  9  1  0
 10  9  2  0
 11 10  1  0
 12  7  1  0
 12 11  2  0
 14  3  1  0
 15 14  2  0
 16 15  1  0
 17 18  1  0
 17 16  2  0
 18 19  2  0
 19 14  1  0
  1 20  1  0
  2 21  1  0
  9 22  1  0
 10 23  1  0
 11 24  1  0
 13 25  1  0
 13 26  1  0
 15 27  1  0
 16 28  1  0
 17 29  1  0
 18 30  1  0
M  END
>  <Score>  (1) 
-7.10381

$$$$
