
     RDKit          3D

 38 42  0  0  0  0  0  0  0  0999 V2000
   44.3820   35.6860   44.9460 C   0  0  0  0  0  0  0  0  0  0  0  0
   44.6890   35.3070   43.6280 C   0  0  0  0  0  0  0  0  0  0  0  0
   45.4200   34.1380   43.4240 C   0  0  0  0  0  0  0  0  0  0  0  0
   45.7610   33.4790   44.5380 N   0  0  0  0  0  0  0  0  0  0  0  0
   45.4650   33.8420   45.7920 C   0  0  0  0  0  0  0  0  0  0  0  0
   44.7720   34.9520   46.0150 N   0  0  0  0  0  0  0  0  0  0  0  0
   45.9210   32.9830   46.8670 C   0  0  0  0  0  0  0  0  0  0  0  0
   45.1100   32.7700   47.9770 C   0  0  0  0  0  0  0  0  0  0  0  0
   45.7500   31.9250   48.8570 C   0  0  0  0  0  0  0  0  0  0  0  0
   46.9460   31.6390   48.2590 N   0  0  0  0  0  0  0  0  0  0  0  0
   47.0460   32.2610   47.0900 N   0  0  0  0  0  0  0  0  0  0  0  0
   49.4190   29.1690   49.0400 N   0  0  0  0  0  0  0  0  0  0  0  0
   48.2770   29.5110   48.4690 N   0  0  0  0  0  0  0  0  0  0  0  0
   48.0350   30.8250   48.6750 C   0  0  0  0  0  0  0  0  0  0  0  0
   49.0940   31.3590   49.4300 C   0  0  0  0  0  0  0  0  0  0  0  0
   49.9470   30.2810   49.6390 C   0  0  0  0  0  0  0  0  0  0  0  0
   45.6840   33.8330   42.0320 C   0  0  0  0  0  0  0  0  0  0  0  0
   44.8630   33.0410   41.3260 N   0  0  0  0  0  0  0  0  0  0  0  0
   45.0500   32.7250   40.0480 C   0  0  0  0  0  0  0  0  0  0  0  0
   46.0970   33.1810   39.3390 N   0  0  0  0  0  0  0  0  0  0  0  0
   46.9890   33.9900   39.9520 C   0  0  0  0  0  0  0  0  0  0  0  0
   48.0760   34.4830   39.2720 C   0  0  0  0  0  0  0  0  0  0  0  0
   48.9950   35.3100   39.8850 C   0  0  0  0  0  0  0  0  0  0  0  0
   48.7700   35.6230   41.2300 C   0  0  0  0  0  0  0  0  0  0  0  0
   47.6680   35.1040   41.8610 C   0  0  0  0  0  0  0  0  0  0  0  0
   46.7400   34.2800   41.2750 C   0  0  0  0  0  0  0  0  0  0  0  0
   43.8066   36.6082   45.1146 H   0  0  0  0  0  0  0  0  0  0  0  0
   44.3595   35.9197   42.7759 H   0  0  0  0  0  0  0  0  0  0  0  0
   44.1125   33.2082   48.1286 H   0  0  0  0  0  0  0  0  0  0  0  0
   45.3804   31.5607   49.8269 H   0  0  0  0  0  0  0  0  0  0  0  0
   49.8390   28.2285   49.0351 H   0  0  0  0  0  0  0  0  0  0  0  0
   49.2194   32.3953   49.7769 H   0  0  0  0  0  0  0  0  0  0  0  0
   50.8946   30.3161   50.1965 H   0  0  0  0  0  0  0  0  0  0  0  0
   44.3213   32.0664   39.5529 H   0  0  0  0  0  0  0  0  0  0  0  0
   48.2170   34.2125   38.2151 H   0  0  0  0  0  0  0  0  0  0  0  0
   49.8653   35.7054   39.3407 H   0  0  0  0  0  0  0  0  0  0  0  0
   49.4675   36.2766   41.7743 H   0  0  0  0  0  0  0  0  0  0  0  0
   47.5165   35.3686   42.9179 H   0  0  0  0  0  0  0  0  0  0  0  0
  1  6  2  0
  2  1  1  0
  3  2  2  0
  3  4  1  0
  4  5  2  0
  5  6  1  0
  5  7  1  0
  7 11  2  0
  7  8  1  0
  8  9  2  0
 10 14  1  0
 10  9  1  0
 11 10  1  0
 12 16  1  0
 13 14  2  0
 13 12  1  0
 14 15  1  0
 15 16  2  0
 17  3  1  0
 18 17  2  0
 19 18  1  0
 20 21  1  0
 20 19  2  0
 21 26  2  0
 22 23  2  0
 22 21  1  0
 23 24  1  0
 24 25  2  0
 26 25  1  0
 26 17  1  0
  1 27  1  0
  2 28  1  0
  8 29  1  0
  9 30  1  0
 12 31  1  0
 15 32  1  0
 16 33  1  0
 19 34  1  0
 22 35  1  0
 23 36  1  0
 24 37  1  0
 25 38  1  0
M  END
>  <Score>  (1) 
-7.39027

$$$$
