
     RDKit          3D

 53 58  0  0  0  0  0  0  0  0999 V2000
   47.6430   33.7500   38.9500 C   0  0  0  0  0  0  0  0  0  0  0  0
   45.1990   33.8050   41.7150 C   0  0  0  0  0  0  0  0  0  0  0  0
   44.1270   33.3020   41.0340 C   0  0  0  0  0  0  0  0  0  0  0  0
   44.8490   33.0410   39.3390 S   0  0  0  0  0  0  0  0  0  0  0  0
   46.5120   33.6790   39.8860 C   0  0  0  0  0  0  0  0  0  0  0  0
   46.2870   33.9190   40.9800 N   0  0  0  0  0  0  0  0  0  0  0  0
   44.5070   35.7520   44.8710 C   0  0  0  0  0  0  0  0  0  0  0  0
   44.5760   35.4200   43.5230 C   0  0  0  0  0  0  0  0  0  0  0  0
   45.1150   34.1800   43.1450 C   0  0  0  0  0  0  0  0  0  0  0  0
   45.5430   33.3660   44.1210 N   0  0  0  0  0  0  0  0  0  0  0  0
   45.4670   33.7050   45.4200 C   0  0  0  0  0  0  0  0  0  0  0  0
   44.9610   34.8710   45.7880 N   0  0  0  0  0  0  0  0  0  0  0  0
   45.9540   32.7630   46.4210 C   0  0  0  0  0  0  0  0  0  0  0  0
   46.9830   31.8630   46.1290 C   0  0  0  0  0  0  0  0  0  0  0  0
   47.4840   30.9580   47.0120 C   0  0  0  0  0  0  0  0  0  0  0  0
   46.9770   30.9140   48.2400 N   0  0  0  0  0  0  0  0  0  0  0  0
   45.9830   31.7730   48.5490 C   0  0  0  0  0  0  0  0  0  0  0  0
   45.4610   32.6950   47.6740 N   0  0  0  0  0  0  0  0  0  0  0  0
   45.3070   31.8800   49.8190 N   0  0  0  0  0  0  0  0  0  0  0  0
   48.0680   32.3590   38.5650 C   0  0  0  0  0  0  0  0  0  0  0  0
   47.8370   32.2390   37.0800 C   0  0  0  0  0  0  0  0  0  0  0  0
   48.7690   32.9330   36.3110 C   0  0  0  0  0  0  0  0  0  0  0  0
   48.6070   32.8600   34.9460 C   0  0  0  0  0  0  0  0  0  0  0  0
   47.6290   32.1750   34.3860 N   0  0  0  0  0  0  0  0  0  0  0  0
   46.7380   31.5100   35.1520 C   0  0  0  0  0  0  0  0  0  0  0  0
   46.8740   31.5670   36.4810 N   0  0  0  0  0  0  0  0  0  0  0  0
   45.6180   30.7180   34.7230 N   0  0  0  0  0  0  0  0  0  0  0  0
   44.4540   30.7340   35.4360 C   0  0  0  0  0  0  0  0  0  0  0  0
   43.5450   29.9260   34.8590 N   0  0  0  0  0  0  0  0  0  0  0  0
   44.1420   29.3960   33.7740 C   0  0  0  0  0  0  0  0  0  0  0  0
   43.7260   28.5120   32.8000 C   0  0  0  0  0  0  0  0  0  0  0  0
   44.5750   28.1660   31.8180 N   0  0  0  0  0  0  0  0  0  0  0  0
   45.8370   28.6840   31.7830 C   0  0  0  0  0  0  0  0  0  0  0  0
   46.2840   29.5600   32.7300 N   0  0  0  0  0  0  0  0  0  0  0  0
   45.4300   29.8940   33.6960 C   0  0  0  0  0  0  0  0  0  0  0  0
   42.4170   28.0170   32.8930 N   0  0  0  0  0  0  0  0  0  0  0  0
   47.3382   34.3022   38.0488 H   0  0  0  0  0  0  0  0  0  0  0  0
   48.4845   34.2685   39.4327 H   0  0  0  0  0  0  0  0  0  0  0  0
   43.1063   33.1036   41.3929 H   0  0  0  0  0  0  0  0  0  0  0  0
   44.0883   36.7191   45.1864 H   0  0  0  0  0  0  0  0  0  0  0  0
   44.2115   36.1226   42.7591 H   0  0  0  0  0  0  0  0  0  0  0  0
   47.4162   31.8884   45.1182 H   0  0  0  0  0  0  0  0  0  0  0  0
   48.2938   30.2751   46.7155 H   0  0  0  0  0  0  0  0  0  0  0  0
   44.5576   32.5750   49.9466 H   0  0  0  0  0  0  0  0  0  0  0  0
   45.5737   31.2614   50.5981 H   0  0  0  0  0  0  0  0  0  0  0  0
   49.1325   32.2083   38.7978 H   0  0  0  0  0  0  0  0  0  0  0  0
   47.4974   31.5997   39.1200 H   0  0  0  0  0  0  0  0  0  0  0  0
   49.5881   33.5069   36.7690 H   0  0  0  0  0  0  0  0  0  0  0  0
   49.3193   33.3925   34.2986 H   0  0  0  0  0  0  0  0  0  0  0  0
   44.2835   31.3221   36.3498 H   0  0  0  0  0  0  0  0  0  0  0  0
   46.5137   28.3872   30.9682 H   0  0  0  0  0  0  0  0  0  0  0  0
   42.0655   27.3547   32.1869 H   0  0  0  0  0  0  0  0  0  0  0  0
   41.8072   28.3158   33.6674 H   0  0  0  0  0  0  0  0  0  0  0  0
  1  5  1  0
  2  9  1  0
  3  2  2  0
  4  5  1  0
  4  3  1  0
  5  6  2  0
  6  2  1  0
  7 12  2  0
  8  7  1  0
  9  8  2  0
  9 10  1  0
 10 11  2  0
 11 12  1  0
 11 13  1  0
 13 18  1  0
 14 13  2  0
 14 15  1  0
 15 16  2  0
 16 17  1  0
 17 19  1  0
 18 17  2  0
 20  1  1  0
 21 20  1  0
 22 21  2  0
 23 22  1  0
 24 23  2  0
 24 25  1  0
 25 26  2  0
 26 21  1  0
 27 25  1  0
 27 28  1  0
 29 28  2  0
 30 29  1  0
 31 36  1  0
 31 30  2  0
 32 31  1  0
 33 32  2  0
 33 34  1  0
 34 35  2  0
 35 30  1  0
 35 27  1  0
  1 37  1  0
  1 38  1  0
  3 39  1  0
  7 40  1  0
  8 41  1  0
 14 42  1  0
 15 43  1  0
 19 44  1  0
 19 45  1  0
 20 46  1  0
 20 47  1  0
 22 48  1  0
 23 49  1  0
 28 50  1  0
 33 51  1  0
 36 52  1  0
 36 53  1  0
M  END
>  <Score>  (1) 
-7.57442

$$$$
