
     RDKit          3D

 42 46  0  0  0  0  0  0  0  0999 V2000
   44.7830   35.6080   43.3090 S   0  0  0  0  0  0  0  0  0  0  0  0
   45.2240   34.1610   45.6260 C   0  0  0  0  0  0  0  0  0  0  0  0
   45.6800   34.4460   44.3170 C   0  0  0  0  0  0  0  0  0  0  0  0
   46.8320   33.8030   43.8560 C   0  0  0  0  0  0  0  0  0  0  0  0
   47.4690   32.9220   44.6960 N   0  0  0  0  0  0  0  0  0  0  0  0
   46.9920   32.6810   45.9420 C   0  0  0  0  0  0  0  0  0  0  0  0
   45.9000   33.2840   46.3930 N   0  0  0  0  0  0  0  0  0  0  0  0
   47.3180   34.0810   42.5190 C   0  0  0  0  0  0  0  0  0  0  0  0
   48.2330   35.1190   42.4460 C   0  0  0  0  0  0  0  0  0  0  0  0
   48.7970   35.5230   41.2590 C   0  0  0  0  0  0  0  0  0  0  0  0
   48.4530   34.8820   40.0770 C   0  0  0  0  0  0  0  0  0  0  0  0
   47.5460   33.8570   40.1680 C   0  0  0  0  0  0  0  0  0  0  0  0
   46.9680   33.4370   41.3450 C   0  0  0  0  0  0  0  0  0  0  0  0
   42.6660   33.2630   41.0830 N   0  0  0  0  0  0  0  0  0  0  0  0
   43.4850   33.4480   42.0770 N   0  0  0  0  0  0  0  0  0  0  0  0
   43.7360   34.7930   42.1650 C   0  0  0  0  0  0  0  0  0  0  0  0
   43.0010   35.3080   41.1650 C   0  0  0  0  0  0  0  0  0  0  0  0
   42.2960   34.3510   40.4400 C   0  0  0  0  0  0  0  0  0  0  0  0
   41.5600   34.8430   39.2940 C   0  0  0  0  0  0  0  0  0  0  0  0
   41.9770   35.8270   38.4980 N   0  0  0  0  0  0  0  0  0  0  0  0
   41.4030   36.2640   37.4130 C   0  0  0  0  0  0  0  0  0  0  0  0
   40.2630   35.7300   36.9660 N   0  0  0  0  0  0  0  0  0  0  0  0
   39.7060   34.7070   37.6780 C   0  0  0  0  0  0  0  0  0  0  0  0
   38.5450   34.1550   37.2110 C   0  0  0  0  0  0  0  0  0  0  0  0
   37.9610   33.1100   37.8940 C   0  0  0  0  0  0  0  0  0  0  0  0
   38.5990   32.6550   39.0560 C   0  0  0  0  0  0  0  0  0  0  0  0
   39.7580   33.2900   39.4210 C   0  0  0  0  0  0  0  0  0  0  0  0
   40.3900   34.3240   38.8000 C   0  0  0  0  0  0  0  0  0  0  0  0
   44.3210   34.6537   46.0156 H   0  0  0  0  0  0  0  0  0  0  0  0
   47.5220   31.9701   46.5930 H   0  0  0  0  0  0  0  0  0  0  0  0
   48.5188   35.6391   43.3722 H   0  0  0  0  0  0  0  0  0  0  0  0
   49.5193   36.3525   41.2461 H   0  0  0  0  0  0  0  0  0  0  0  0
   48.8875   35.1820   39.1120 H   0  0  0  0  0  0  0  0  0  0  0  0
   47.2622   33.3371   39.2411 H   0  0  0  0  0  0  0  0  0  0  0  0
   46.2445   32.6084   41.3521 H   0  0  0  0  0  0  0  0  0  0  0  0
   42.3291   32.3268   40.8165 H   0  0  0  0  0  0  0  0  0  0  0  0
   42.9601   36.3840   40.9404 H   0  0  0  0  0  0  0  0  0  0  0  0
   41.8667   37.0898   36.8535 H   0  0  0  0  0  0  0  0  0  0  0  0
   38.0790   34.5437   36.2935 H   0  0  0  0  0  0  0  0  0  0  0  0
   37.0271   32.6493   37.5396 H   0  0  0  0  0  0  0  0  0  0  0  0
   38.1879   31.8248   39.6491 H   0  0  0  0  0  0  0  0  0  0  0  0
   40.2407   32.9150   40.3355 H   0  0  0  0  0  0  0  0  0  0  0  0
  1  3  1  0
  2  7  2  0
  3  2  1  0
  4  3  2  0
  4  5  1  0
  5  6  2  0
  6  7  1  0
  8  4  1  0
  9  8  2  0
 10  9  1  0
 11 12  1  0
 11 10  2  0
 12 13  2  0
 13  8  1  0
 14 15  1  0
 15 16  2  0
 16  1  1  0
 17 16  1  0
 18 14  1  0
 18 17  2  0
 19 18  1  0
 20 19  2  0
 21 20  1  0
 22 21  2  0
 22 23  1  0
 23 28  2  0
 24 23  1  0
 24 25  2  0
 25 26  1  0
 26 27  2  0
 28 19  1  0
 28 27  1  0
  2 29  1  0
  6 30  1  0
  9 31  1  0
 10 32  1  0
 11 33  1  0
 12 34  1  0
 13 35  1  0
 14 36  1  0
 17 37  1  0
 21 38  1  0
 24 39  1  0
 25 40  1  0
 26 41  1  0
 27 42  1  0
M  END
>  <Score>  (1) 
-7.26541

$$$$
