
     RDKit          3D

 37 40  0  0  0  0  0  0  0  0999 V2000
   46.9000   34.7350   41.9060 C   0  0  0  0  0  0  0  0  0  0  0  0
   48.2010   35.1790   41.6750 C   0  0  0  0  0  0  0  0  0  0  0  0
   48.4540   34.7770   40.3660 C   0  0  0  0  0  0  0  0  0  0  0  0
   47.3100   34.1240   39.8900 C   0  0  0  0  0  0  0  0  0  0  0  0
   46.4090   34.1290   40.8580 O   0  0  0  0  0  0  0  0  0  0  0  0
   44.5010   36.0590   44.4200 C   0  0  0  0  0  0  0  0  0  0  0  0
   45.2400   35.9320   43.1990 C   0  0  0  0  0  0  0  0  0  0  0  0
   46.1370   34.8940   43.1270 C   0  0  0  0  0  0  0  0  0  0  0  0
   46.2790   34.0580   44.1910 N   0  0  0  0  0  0  0  0  0  0  0  0
   45.5700   34.2030   45.3300 C   0  0  0  0  0  0  0  0  0  0  0  0
   44.6750   35.2110   45.4430 N   0  0  0  0  0  0  0  0  0  0  0  0
   45.8820   33.2150   46.3070 N   0  0  0  0  0  0  0  0  0  0  0  0
   45.2540   32.9920   47.4750 C   0  0  0  0  0  0  0  0  0  0  0  0
   45.8490   31.9490   48.1500 C   0  0  0  0  0  0  0  0  0  0  0  0
   46.8710   31.5290   47.3610 N   0  0  0  0  0  0  0  0  0  0  0  0
   46.8790   32.3020   46.2540 C   0  0  0  0  0  0  0  0  0  0  0  0
   47.1620   33.5660   38.5990 N   0  0  0  0  0  0  0  0  0  0  0  0
   46.3100   32.5360   38.4510 C   0  0  0  0  0  0  0  0  0  0  0  0
   46.1290   31.9470   37.2150 C   0  0  0  0  0  0  0  0  0  0  0  0
   46.8380   32.4320   36.1320 C   0  0  0  0  0  0  0  0  0  0  0  0
   46.6620   31.8860   35.0160 O   0  0  0  0  0  0  0  0  0  0  0  0
   47.6840   33.4730   36.3360 N   0  0  0  0  0  0  0  0  0  0  0  0
   47.8410   34.0290   37.5610 C   0  0  0  0  0  0  0  0  0  0  0  0
   48.6410   34.9910   37.6860 O   0  0  0  0  0  0  0  0  0  0  0  0
   45.1700   30.8150   37.1320 C   0  0  0  0  0  0  0  0  0  0  0  0
   48.8687   35.7184   42.3629 H   0  0  0  0  0  0  0  0  0  0  0  0
   49.3860   34.9427   39.8058 H   0  0  0  0  0  0  0  0  0  0  0  0
   43.7705   36.8753   44.5204 H   0  0  0  0  0  0  0  0  0  0  0  0
   45.0963   36.6305   42.3615 H   0  0  0  0  0  0  0  0  0  0  0  0
   44.3871   33.5623   47.8401 H   0  0  0  0  0  0  0  0  0  0  0  0
   45.5560   31.5400   49.1282 H   0  0  0  0  0  0  0  0  0  0  0  0
   47.5956   32.2033   45.4253 H   0  0  0  0  0  0  0  0  0  0  0  0
   45.7527   32.1596   39.3215 H   0  0  0  0  0  0  0  0  0  0  0  0
   48.2194   33.8493   35.5406 H   0  0  0  0  0  0  0  0  0  0  0  0
   44.8959   30.4915   38.1470 H   0  0  0  0  0  0  0  0  0  0  0  0
   44.2668   31.1383   36.5938 H   0  0  0  0  0  0  0  0  0  0  0  0
   45.6374   29.9772   36.5938 H   0  0  0  0  0  0  0  0  0  0  0  0
  1  8  1  0
  2  1  2  0
  3  2  1  0
  4  3  2  0
  4  5  1  0
  5  1  1  0
  6 11  2  0
  7  6  1  0
  8  7  2  0
  8  9  1  0
  9 10  2  0
 10 11  1  0
 10 12  1  0
 12 13  1  0
 13 14  2  0
 15 14  1  0
 16 12  1  0
 16 15  2  0
 17  4  1  0
 18 17  1  0
 19 18  2  0
 20 22  1  0
 20 19  1  0
 21 20  2  0
 22 23  1  0
 23 24  2  0
 23 17  1  0
 25 19  1  0
  2 26  1  0
  3 27  1  0
  6 28  1  0
  7 29  1  0
 13 30  1  0
 14 31  1  0
 16 32  1  0
 18 33  1  0
 22 34  1  0
 25 35  1  0
 25 36  1  0
 25 37  1  0
M  END
>  <Score>  (1) 
-7.3868

$$$$
