
     RDKit          3D

 40 43  0  0  0  0  0  0  0  0999 V2000
   45.2560   34.0180   41.5850 N   0  0  0  0  0  0  0  0  0  0  0  0
   46.5370   34.0200   41.0620 C   0  0  0  0  0  0  0  0  0  0  0  0
   46.6270   33.6330   39.7150 C   0  0  0  0  0  0  0  0  0  0  0  0
   45.4570   33.2920   39.0560 C   0  0  0  0  0  0  0  0  0  0  0  0
   45.4340   32.8790   37.6890 N   0  0  0  0  0  0  0  0  0  0  0  0
   44.2400   33.3120   39.6350 N   0  0  0  0  0  0  0  0  0  0  0  0
   44.1250   33.6860   40.9430 C   0  0  0  0  0  0  0  0  0  0  0  0
   43.0210   33.7210   41.5290 O   0  0  0  0  0  0  0  0  0  0  0  0
   44.5660   35.9560   44.7380 C   0  0  0  0  0  0  0  0  0  0  0  0
   44.6680   35.6710   43.3770 C   0  0  0  0  0  0  0  0  0  0  0  0
   45.1070   34.4220   42.9530 C   0  0  0  0  0  0  0  0  0  0  0  0
   45.4170   33.5320   43.9230 N   0  0  0  0  0  0  0  0  0  0  0  0
   45.3160   33.8200   45.2310 C   0  0  0  0  0  0  0  0  0  0  0  0
   44.8960   35.0150   45.6350 N   0  0  0  0  0  0  0  0  0  0  0  0
   45.6560   32.8390   46.2330 N   0  0  0  0  0  0  0  0  0  0  0  0
   45.4980   32.7520   47.5460 N   0  0  0  0  0  0  0  0  0  0  0  0
   46.0000   31.6030   47.9890 C   0  0  0  0  0  0  0  0  0  0  0  0
   46.5060   30.9250   46.8850 C   0  0  0  0  0  0  0  0  0  0  0  0
   46.2750   31.7320   45.7760 C   0  0  0  0  0  0  0  0  0  0  0  0
   47.6810   34.3840   41.9000 C   0  0  0  0  0  0  0  0  0  0  0  0
   48.3640   35.6820   41.6480 C   0  0  0  0  0  0  0  0  0  0  0  0
   49.7680   35.5130   42.1760 C   0  0  0  0  0  0  0  0  0  0  0  0
   49.9150   34.0970   42.6740 C   0  0  0  0  0  0  0  0  0  0  0  0
   48.6110   33.3670   42.4310 C   0  0  0  0  0  0  0  0  0  0  0  0
   47.8960   33.5990   39.0220 C   0  0  0  0  0  0  0  0  0  0  0  0
   48.4310   34.8050   38.7910 F   0  0  0  0  0  0  0  0  0  0  0  0
   47.6860   33.0010   37.7540 F   0  0  0  0  0  0  0  0  0  0  0  0
   48.7180   32.6720   39.6210 F   0  0  0  0  0  0  0  0  0  0  0  0
   46.3111   32.8285   37.1514 H   0  0  0  0  0  0  0  0  0  0  0  0
   44.5403   32.6316   37.2407 H   0  0  0  0  0  0  0  0  0  0  0  0
   44.2179   36.9441   45.0732 H   0  0  0  0  0  0  0  0  0  0  0  0
   44.3999   36.4379   42.6354 H   0  0  0  0  0  0  0  0  0  0  0  0
   46.0127   31.2544   49.0322 H   0  0  0  0  0  0  0  0  0  0  0  0
   46.9950   29.9397   46.8883 H   0  0  0  0  0  0  0  0  0  0  0  0
   46.5441   31.5108   44.7326 H   0  0  0  0  0  0  0  0  0  0  0  0
   47.9351   36.5779   41.1754 H   0  0  0  0  0  0  0  0  0  0  0  0
   50.5484   36.2880   42.1944 H   0  0  0  0  0  0  0  0  0  0  0  0
   50.8165   33.6675   43.1354 H   0  0  0  0  0  0  0  0  0  0  0  0
   48.2248   32.9469   43.3714 H   0  0  0  0  0  0  0  0  0  0  0  0
   48.7383   32.5268   41.7325 H   0  0  0  0  0  0  0  0  0  0  0  0
  1 11  1  0
  2  1  1  0
  2 20  1  0
  3  2  2  0
  4  6  2  0
  4  3  1  0
  5  4  1  0
  6  7  1  0
  7  8  2  0
  7  1  1  0
  9 14  2  0
 10  9  1  0
 11 10  2  0
 11 12  1  0
 12 13  2  0
 13 14  1  0
 13 15  1  0
 15 16  1  0
 16 17  2  0
 18 17  1  0
 19 15  1  0
 19 18  2  0
 20 24  1  0
 21 20  2  0
 21 22  1  0
 22 23  2  0
 24 23  1  0
 25 28  1  0
 25  3  1  0
 26 25  1  0
 27 25  1  0
  5 29  1  0
  5 30  1  0
  9 31  1  0
 10 32  1  0
 17 33  1  0
 18 34  1  0
 19 35  1  0
 21 36  1  0
 22 37  1  0
 23 38  1  0
 24 39  1  0
 24 40  1  0
M  END
>  <Score>  (1) 
-7.24773

$$$$
