
     RDKit          3D

 45 50  0  0  0  0  0  0  0  0999 V2000
   44.4190   36.0030   44.4600 C   0  0  0  0  0  0  0  0  0  0  0  0
   45.0590   36.0720   43.2200 C   0  0  0  0  0  0  0  0  0  0  0  0
   46.0550   35.1160   42.9310 C   0  0  0  0  0  0  0  0  0  0  0  0
   46.3490   34.1810   43.8550 N   0  0  0  0  0  0  0  0  0  0  0  0
   45.6920   34.1430   45.0770 C   0  0  0  0  0  0  0  0  0  0  0  0
   44.7530   35.0500   45.3400 N   0  0  0  0  0  0  0  0  0  0  0  0
   46.1030   33.0960   45.9650 N   0  0  0  0  0  0  0  0  0  0  0  0
   45.8160   32.9270   47.2670 C   0  0  0  0  0  0  0  0  0  0  0  0
   46.4210   31.8080   47.6750 N   0  0  0  0  0  0  0  0  0  0  0  0
   47.0960   31.2450   46.6710 C   0  0  0  0  0  0  0  0  0  0  0  0
   47.8770   30.0850   46.5910 C   0  0  0  0  0  0  0  0  0  0  0  0
   48.4190   29.8160   45.3880 N   0  0  0  0  0  0  0  0  0  0  0  0
   48.2030   30.6420   44.3330 C   0  0  0  0  0  0  0  0  0  0  0  0
   47.4520   31.7650   44.3970 N   0  0  0  0  0  0  0  0  0  0  0  0
   46.8910   32.0620   45.5950 C   0  0  0  0  0  0  0  0  0  0  0  0
   48.8200   30.3250   42.9910 C   0  0  0  0  0  0  0  0  0  0  0  0
   48.6840   31.4130   42.1600 F   0  0  0  0  0  0  0  0  0  0  0  0
   48.2030   29.2420   42.4260 F   0  0  0  0  0  0  0  0  0  0  0  0
   50.1710   30.1250   43.1430 F   0  0  0  0  0  0  0  0  0  0  0  0
   48.0940   29.2080   47.7540 C   0  0  0  0  0  0  0  0  0  0  0  0
   49.3800   29.6010   48.3920 C   0  0  0  0  0  0  0  0  0  0  0  0
   50.6390   29.0750   48.3490 C   0  0  0  0  0  0  0  0  0  0  0  0
   51.4620   29.8570   49.1450 C   0  0  0  0  0  0  0  0  0  0  0  0
   50.6860   30.8430   49.6560 N   0  0  0  0  0  0  0  0  0  0  0  0
   49.4560   30.6720   49.1960 N   0  0  0  0  0  0  0  0  0  0  0  0
   52.0590   31.6940   53.9370 N   0  0  0  0  0  0  0  0  0  0  0  0
   51.7950   30.3910   53.7190 C   0  0  0  0  0  0  0  0  0  0  0  0
   51.3990   30.2210   52.4450 N   0  0  0  0  0  0  0  0  0  0  0  0
   51.4000   31.4220   51.8100 C   0  0  0  0  0  0  0  0  0  0  0  0
   51.1010   31.8850   50.5320 C   0  0  0  0  0  0  0  0  0  0  0  0
   51.2140   33.1950   50.2260 N   0  0  0  0  0  0  0  0  0  0  0  0
   51.6290   34.0650   51.1930 C   0  0  0  0  0  0  0  0  0  0  0  0
   51.9300   33.6410   52.4560 N   0  0  0  0  0  0  0  0  0  0  0  0
   51.8220   32.3360   52.7780 C   0  0  0  0  0  0  0  0  0  0  0  0
   43.6377   36.7342   44.7146 H   0  0  0  0  0  0  0  0  0  0  0  0
   44.7935   36.8503   42.4894 H   0  0  0  0  0  0  0  0  0  0  0  0
   46.5833   35.1337   41.9663 H   0  0  0  0  0  0  0  0  0  0  0  0
   45.1944   33.5910   47.8857 H   0  0  0  0  0  0  0  0  0  0  0  0
   47.2690   29.3284   48.4716 H   0  0  0  0  0  0  0  0  0  0  0  0
   48.1302   28.1551   47.4375 H   0  0  0  0  0  0  0  0  0  0  0  0
   50.9472   28.1848   47.7811 H   0  0  0  0  0  0  0  0  0  0  0  0
   52.5364   29.7061   49.3264 H   0  0  0  0  0  0  0  0  0  0  0  0
   52.3800   32.1169   54.8196 H   0  0  0  0  0  0  0  0  0  0  0  0
   51.8888   29.5901   54.4672 H   0  0  0  0  0  0  0  0  0  0  0  0
   51.7232   35.1334   50.9489 H   0  0  0  0  0  0  0  0  0  0  0  0
  1  6  2  0
  2  1  1  0
  3  2  2  0
  3  4  1  0
  4  5  2  0
  5  6  1  0
  5  7  1  0
  7  8  1  0
  8  9  2  0
 10  9  1  0
 11 10  2  0
 11 20  1  0
 12 11  1  0
 13 14  1  0
 13 12  2  0
 14 15  2  0
 15  7  1  0
 15 10  1  0
 16 19  1  0
 16 13  1  0
 17 16  1  0
 18 16  1  0
 20 21  1  0
 21 25  2  0
 22 21  1  0
 22 23  2  0
 23 24  1  0
 24 30  1  0
 25 24  1  0
 27 26  1  0
 28 27  2  0
 29 28  1  0
 29 34  2  0
 30 29  1  0
 31 30  2  0
 31 32  1  0
 32 33  2  0
 33 34  1  0
 34 26  1  0
  1 35  1  0
  2 36  1  0
  3 37  1  0
  8 38  1  0
 20 39  1  0
 20 40  1  0
 22 41  1  0
 23 42  1  0
 26 43  1  0
 27 44  1  0
 32 45  1  0
M  END
>  <Score>  (1) 
-7.09453

$$$$
