
     RDKit          3D

 40 43  0  0  0  0  0  0  0  0999 V2000
   46.5910   34.6630   42.1560 C   0  0  0  0  0  0  0  0  0  0  0  0
   47.7980   35.2800   41.9830 C   0  0  0  0  0  0  0  0  0  0  0  0
   48.5260   35.1590   40.7860 C   0  0  0  0  0  0  0  0  0  0  0  0
   47.9960   34.3810   39.7450 C   0  0  0  0  0  0  0  0  0  0  0  0
   46.7650   33.7530   39.9280 C   0  0  0  0  0  0  0  0  0  0  0  0
   46.1010   33.9100   41.1170 C   0  0  0  0  0  0  0  0  0  0  0  0
   44.8350   33.2510   41.2780 N   0  0  0  0  0  0  0  0  0  0  0  0
   44.6160   31.9970   41.7260 C   0  0  0  0  0  0  0  0  0  0  0  0
   43.3330   31.5200   41.8180 C   0  0  0  0  0  0  0  0  0  0  0  0
   42.2550   32.2870   41.4660 C   0  0  0  0  0  0  0  0  0  0  0  0
   41.0860   31.8010   41.5690 O   0  0  0  0  0  0  0  0  0  0  0  0
   42.5150   33.5350   41.0230 N   0  0  0  0  0  0  0  0  0  0  0  0
   43.7620   34.0120   40.9280 C   0  0  0  0  0  0  0  0  0  0  0  0
   43.8710   35.1970   40.4980 O   0  0  0  0  0  0  0  0  0  0  0  0
   41.3730   34.3120   40.6620 C   0  0  0  0  0  0  0  0  0  0  0  0
   41.3310   35.6490   41.0110 C   0  0  0  0  0  0  0  0  0  0  0  0
   40.1130   36.1660   40.5420 C   0  0  0  0  0  0  0  0  0  0  0  0
   39.4760   35.1340   39.9350 N   0  0  0  0  0  0  0  0  0  0  0  0
   40.2210   34.0580   40.0120 N   0  0  0  0  0  0  0  0  0  0  0  0
   44.4580   35.9540   44.9900 C   0  0  0  0  0  0  0  0  0  0  0  0
   45.0600   35.8750   43.7350 C   0  0  0  0  0  0  0  0  0  0  0  0
   45.9130   34.8450   43.4190 C   0  0  0  0  0  0  0  0  0  0  0  0
   46.1440   33.9010   44.3950 N   0  0  0  0  0  0  0  0  0  0  0  0
   45.5460   33.9970   45.6160 C   0  0  0  0  0  0  0  0  0  0  0  0
   44.7170   35.0050   45.9090 N   0  0  0  0  0  0  0  0  0  0  0  0
   45.8230   32.9500   46.6490 C   0  0  0  0  0  0  0  0  0  0  0  0
   48.2111   35.8874   42.8018 H   0  0  0  0  0  0  0  0  0  0  0  0
   49.4951   35.6658   40.6675 H   0  0  0  0  0  0  0  0  0  0  0  0
   48.5443   34.2684   38.7981 H   0  0  0  0  0  0  0  0  0  0  0  0
   46.3307   33.1376   39.1263 H   0  0  0  0  0  0  0  0  0  0  0  0
   45.4638   31.3592   42.0166 H   0  0  0  0  0  0  0  0  0  0  0  0
   43.1663   30.4960   42.1836 H   0  0  0  0  0  0  0  0  0  0  0  0
   42.1083   36.2050   41.5556 H   0  0  0  0  0  0  0  0  0  0  0  0
   39.7490   37.1988   40.6458 H   0  0  0  0  0  0  0  0  0  0  0  0
   38.5515   35.1873   39.4840 H   0  0  0  0  0  0  0  0  0  0  0  0
   43.7771   36.7847   45.2273 H   0  0  0  0  0  0  0  0  0  0  0  0
   44.8484   36.6509   42.9845 H   0  0  0  0  0  0  0  0  0  0  0  0
   45.7078   33.3855   47.6525 H   0  0  0  0  0  0  0  0  0  0  0  0
   45.1141   32.1178   46.5268 H   0  0  0  0  0  0  0  0  0  0  0  0
   46.8507   32.5772   46.5268 H   0  0  0  0  0  0  0  0  0  0  0  0
  1 22  1  0
  2  1  2  0
  3  2  1  0
  4  5  1  0
  4  3  2  0
  5  6  2  0
  6  7  1  0
  6  1  1  0
  7  8  1  0
  8  9  2  0
 10 11  2  0
 10  9  1  0
 12 10  1  0
 13 12  1  0
 13  7  1  0
 14 13  2  0
 15 16  1  0
 15 12  1  0
 17 16  2  0
 18 19  1  0
 18 17  1  0
 19 15  2  0
 20 25  2  0
 21 20  1  0
 22 21  2  0
 22 23  1  0
 23 24  2  0
 24 25  1  0
 24 26  1  0
  2 27  1  0
  3 28  1  0
  4 29  1  0
  5 30  1  0
  8 31  1  0
  9 32  1  0
 16 33  1  0
 17 34  1  0
 18 35  1  0
 20 36  1  0
 21 37  1  0
 26 38  1  0
 26 39  1  0
 26 40  1  0
M  END
>  <Score>  (1) 
-7.90036

$$$$
