
     RDKit          3D

 45 48  0  0  0  0  0  0  0  0999 V2000
   44.4980   35.8810   44.8350 C   0  0  0  0  0  0  0  0  0  0  0  0
   45.0830   35.8940   43.5890 C   0  0  0  0  0  0  0  0  0  0  0  0
   46.0070   34.9270   43.1600 C   0  0  0  0  0  0  0  0  0  0  0  0
   46.2360   34.0040   44.1450 N   0  0  0  0  0  0  0  0  0  0  0  0
   45.6820   33.9770   45.3470 C   0  0  0  0  0  0  0  0  0  0  0  0
   44.8160   34.9190   45.6730 N   0  0  0  0  0  0  0  0  0  0  0  0
   46.0160   32.9060   46.2340 N   0  0  0  0  0  0  0  0  0  0  0  0
   45.2980   32.7700   47.3790 C   0  0  0  0  0  0  0  0  0  0  0  0
   45.6380   31.7340   48.2290 C   0  0  0  0  0  0  0  0  0  0  0  0
   46.6860   30.9030   47.8570 C   0  0  0  0  0  0  0  0  0  0  0  0
   47.0200   29.9430   48.6210 O   0  0  0  0  0  0  0  0  0  0  0  0
   47.3630   31.0890   46.7010 N   0  0  0  0  0  0  0  0  0  0  0  0
   47.0110   32.0990   45.9020 C   0  0  0  0  0  0  0  0  0  0  0  0
   47.6700   32.2270   44.8410 O   0  0  0  0  0  0  0  0  0  0  0  0
   46.7220   34.8090   41.9510 C   0  0  0  0  0  0  0  0  0  0  0  0
   47.9540   35.4210   41.9030 C   0  0  0  0  0  0  0  0  0  0  0  0
   48.7880   35.3900   40.7990 C   0  0  0  0  0  0  0  0  0  0  0  0
   48.3760   34.7160   39.6840 C   0  0  0  0  0  0  0  0  0  0  0  0
   47.1330   34.0770   39.6790 C   0  0  0  0  0  0  0  0  0  0  0  0
   46.7200   33.4270   38.5570 C   0  0  0  0  0  0  0  0  0  0  0  0
   45.4940   32.8070   38.5010 C   0  0  0  0  0  0  0  0  0  0  0  0
   44.7420   32.8990   39.6480 C   0  0  0  0  0  0  0  0  0  0  0  0
   45.1650   33.5510   40.7700 C   0  0  0  0  0  0  0  0  0  0  0  0
   46.3760   34.1560   40.8050 C   0  0  0  0  0  0  0  0  0  0  0  0
   44.1760   33.5340   41.8900 C   0  0  0  0  0  0  0  0  0  0  0  0
   42.7730   34.0040   41.3690 C   0  0  0  0  0  0  0  0  0  0  0  0
   44.9250   31.4920   49.4990 C   0  0  0  0  0  0  0  0  0  0  0  0
   43.7780   36.6608   45.1242 H   0  0  0  0  0  0  0  0  0  0  0  0
   44.8131   36.7028   42.8940 H   0  0  0  0  0  0  0  0  0  0  0  0
   44.4757   33.4593   47.6212 H   0  0  0  0  0  0  0  0  0  0  0  0
   48.1375   30.4617   46.4413 H   0  0  0  0  0  0  0  0  0  0  0  0
   48.2958   35.9669   42.7947 H   0  0  0  0  0  0  0  0  0  0  0  0
   49.7635   35.8980   40.8187 H   0  0  0  0  0  0  0  0  0  0  0  0
   49.0204   34.6765   38.7934 H   0  0  0  0  0  0  0  0  0  0  0  0
   47.3800   33.3970   37.6775 H   0  0  0  0  0  0  0  0  0  0  0  0
   45.1410   32.2765   37.6044 H   0  0  0  0  0  0  0  0  0  0  0  0
   43.7501   32.4236   39.6623 H   0  0  0  0  0  0  0  0  0  0  0  0
   44.0937   32.5121   42.2887 H   0  0  0  0  0  0  0  0  0  0  0  0
   44.5152   34.2160   42.6837 H   0  0  0  0  0  0  0  0  0  0  0  0
   42.1185   34.2233   42.2254 H   0  0  0  0  0  0  0  0  0  0  0  0
   42.8937   34.9108   40.7581 H   0  0  0  0  0  0  0  0  0  0  0  0
   42.3231   33.2075   40.7581 H   0  0  0  0  0  0  0  0  0  0  0  0
   45.5927   31.7186   50.3433 H   0  0  0  0  0  0  0  0  0  0  0  0
   44.0369   32.1390   49.5500 H   0  0  0  0  0  0  0  0  0  0  0  0
   44.6142   30.4380   49.5500 H   0  0  0  0  0  0  0  0  0  0  0  0
  1  6  2  0
  2  1  1  0
  3  2  2  0
  3  4  1  0
  4  5  2  0
  5  6  1  0
  5  7  1  0
  7  8  1  0
  8  9  2  0
  9 27  1  0
 10  9  1  0
 10 11  2  0
 12 10  1  0
 13  7  1  0
 13 12  1  0
 14 13  2  0
 15  3  1  0
 16 15  2  0
 17 16  1  0
 18 17  2  0
 19 18  1  0
 19 24  2  0
 20 19  1  0
 21 20  2  0
 21 22  1  0
 22 23  2  0
 23 24  1  0
 23 25  1  0
 24 15  1  0
 26 25  1  0
  1 28  1  0
  2 29  1  0
  8 30  1  0
 12 31  1  0
 16 32  1  0
 17 33  1  0
 18 34  1  0
 20 35  1  0
 21 36  1  0
 22 37  1  0
 25 38  1  0
 25 39  1  0
 26 40  1  0
 26 41  1  0
 26 42  1  0
 27 43  1  0
 27 44  1  0
 27 45  1  0
M  END
>  <Score>  (1) 
-7.90895

$$$$
