
     RDKit          3D

 43 47  0  0  0  0  0  0  0  0999 V2000
   46.8870   34.7790   41.7510 C   0  0  0  0  0  0  0  0  0  0  0  0
   48.2120   35.1780   41.5750 C   0  0  0  0  0  0  0  0  0  0  0  0
   48.5000   34.7460   40.2830 C   0  0  0  0  0  0  0  0  0  0  0  0
   47.3560   34.1280   39.7710 C   0  0  0  0  0  0  0  0  0  0  0  0
   46.4150   34.1790   40.7050 O   0  0  0  0  0  0  0  0  0  0  0  0
   44.4610   36.2270   44.1790 C   0  0  0  0  0  0  0  0  0  0  0  0
   45.2270   36.0620   42.9810 C   0  0  0  0  0  0  0  0  0  0  0  0
   46.0870   34.9890   42.9480 C   0  0  0  0  0  0  0  0  0  0  0  0
   46.1570   34.1670   44.0280 N   0  0  0  0  0  0  0  0  0  0  0  0
   45.4170   34.3570   45.1410 C   0  0  0  0  0  0  0  0  0  0  0  0
   44.5670   35.3880   45.2180 N   0  0  0  0  0  0  0  0  0  0  0  0
   45.6120   33.4040   46.1800 N   0  0  0  0  0  0  0  0  0  0  0  0
   45.1430   33.5390   47.4540 C   0  0  0  0  0  0  0  0  0  0  0  0
   45.4990   32.4620   48.1920 N   0  0  0  0  0  0  0  0  0  0  0  0
   46.1880   31.6690   47.3650 C   0  0  0  0  0  0  0  0  0  0  0  0
   46.8060   30.4320   47.5340 C   0  0  0  0  0  0  0  0  0  0  0  0
   47.4570   29.8140   46.5190 N   0  0  0  0  0  0  0  0  0  0  0  0
   47.5050   30.4200   45.3000 C   0  0  0  0  0  0  0  0  0  0  0  0
   46.9130   31.6310   45.0920 N   0  0  0  0  0  0  0  0  0  0  0  0
   46.2730   32.2340   46.0980 C   0  0  0  0  0  0  0  0  0  0  0  0
   46.7190   29.8470   48.8440 N   0  0  0  0  0  0  0  0  0  0  0  0
   47.2360   33.5520   38.4800 N   0  0  0  0  0  0  0  0  0  0  0  0
   46.4110   32.4970   38.3360 C   0  0  0  0  0  0  0  0  0  0  0  0
   46.2510   31.8890   37.1020 C   0  0  0  0  0  0  0  0  0  0  0  0
   46.9610   32.3930   36.0210 C   0  0  0  0  0  0  0  0  0  0  0  0
   46.8040   31.8270   34.9080 O   0  0  0  0  0  0  0  0  0  0  0  0
   47.7660   33.4440   36.2260 N   0  0  0  0  0  0  0  0  0  0  0  0
   47.9070   34.0250   37.4450 C   0  0  0  0  0  0  0  0  0  0  0  0
   48.6790   35.0090   37.5660 O   0  0  0  0  0  0  0  0  0  0  0  0
   45.3190   30.7360   37.0410 C   0  0  0  0  0  0  0  0  0  0  0  0
   48.8684   35.7048   42.2832 H   0  0  0  0  0  0  0  0  0  0  0  0
   49.4587   34.8694   39.7580 H   0  0  0  0  0  0  0  0  0  0  0  0
   43.7607   37.0724   44.2489 H   0  0  0  0  0  0  0  0  0  0  0  0
   45.1329   36.7558   42.1326 H   0  0  0  0  0  0  0  0  0  0  0  0
   44.5620   34.3958   47.8260 H   0  0  0  0  0  0  0  0  0  0  0  0
   48.0298   29.9246   44.4698 H   0  0  0  0  0  0  0  0  0  0  0  0
   47.1566   28.9333   49.0301 H   0  0  0  0  0  0  0  0  0  0  0  0
   46.2191   30.3415   49.5967 H   0  0  0  0  0  0  0  0  0  0  0  0
   45.8589   32.1146   39.2072 H   0  0  0  0  0  0  0  0  0  0  0  0
   48.2972   33.8251   35.4301 H   0  0  0  0  0  0  0  0  0  0  0  0
   45.0619   30.4179   38.0621 H   0  0  0  0  0  0  0  0  0  0  0  0
   44.4036   31.0323   36.5078 H   0  0  0  0  0  0  0  0  0  0  0  0
   45.8006   29.9031   36.5078 H   0  0  0  0  0  0  0  0  0  0  0  0
  1  8  1  0
  2  1  2  0
  3  2  1  0
  4  3  2  0
  4  5  1  0
  5  1  1  0
  6 11  2  0
  7  6  1  0
  8  7  2  0
  8  9  1  0
  9 10  2  0
 10 11  1  0
 10 12  1  0
 12 13  1  0
 13 14  2  0
 15 16  2  0
 15 14  1  0
 16 21  1  0
 17 16  1  0
 18 17  2  0
 19 18  1  0
 19 20  2  0
 20 12  1  0
 20 15  1  0
 22  4  1  0
 23 22  1  0
 24 23  2  0
 25 27  1  0
 25 24  1  0
 26 25  2  0
 27 28  1  0
 28 29  2  0
 28 22  1  0
 30 24  1  0
  2 31  1  0
  3 32  1  0
  6 33  1  0
  7 34  1  0
 13 35  1  0
 18 36  1  0
 21 37  1  0
 21 38  1  0
 23 39  1  0
 27 40  1  0
 30 41  1  0
 30 42  1  0
 30 43  1  0
M  END
>  <Score>  (1) 
-8.082

$$$$
