
     RDKit          3D

 38 41  0  0  0  0  0  0  0  0999 V2000
   44.5130   35.9130   44.6730 C   0  0  0  0  0  0  0  0  0  0  0  0
   45.2550   35.8860   43.4680 C   0  0  0  0  0  0  0  0  0  0  0  0
   46.1610   34.8650   43.3170 C   0  0  0  0  0  0  0  0  0  0  0  0
   46.3250   33.9230   44.3020 N   0  0  0  0  0  0  0  0  0  0  0  0
   45.5860   33.9910   45.4470 C   0  0  0  0  0  0  0  0  0  0  0  0
   44.6870   34.9790   45.6290 N   0  0  0  0  0  0  0  0  0  0  0  0
   45.7730   32.9820   46.4820 C   0  0  0  0  0  0  0  0  0  0  0  0
   45.2500   33.0160   47.7570 C   0  0  0  0  0  0  0  0  0  0  0  0
   45.6290   31.9180   48.4380 N   0  0  0  0  0  0  0  0  0  0  0  0
   46.3860   31.2020   47.5880 C   0  0  0  0  0  0  0  0  0  0  0  0
   46.9980   29.9920   47.8500 C   0  0  0  0  0  0  0  0  0  0  0  0
   47.7450   29.3900   46.8550 C   0  0  0  0  0  0  0  0  0  0  0  0
   47.8700   30.0060   45.6170 C   0  0  0  0  0  0  0  0  0  0  0  0
   47.2430   31.2300   45.3740 C   0  0  0  0  0  0  0  0  0  0  0  0
   46.5070   31.8200   46.3600 C   0  0  0  0  0  0  0  0  0  0  0  0
   46.9450   34.7970   42.0960 C   0  0  0  0  0  0  0  0  0  0  0  0
   48.2400   35.2600   41.9200 C   0  0  0  0  0  0  0  0  0  0  0  0
   48.5100   34.9480   40.5810 C   0  0  0  0  0  0  0  0  0  0  0  0
   47.4040   34.3340   40.0360 C   0  0  0  0  0  0  0  0  0  0  0  0
   46.5070   34.2780   41.0010 O   0  0  0  0  0  0  0  0  0  0  0  0
   47.2560   33.8600   38.7140 N   0  0  0  0  0  0  0  0  0  0  0  0
   48.2930   33.9780   37.7550 C   0  0  0  0  0  0  0  0  0  0  0  0
   49.0400   35.0580   37.7960 N   0  0  0  0  0  0  0  0  0  0  0  0
   48.4500   32.8960   36.8030 N   0  0  0  0  0  0  0  0  0  0  0  0
   49.8400   35.0590   37.1290 H   0  0  0  0  0  0  0  0  0  0  0  0
   43.7772   36.7149   44.8330 H   0  0  0  0  0  0  0  0  0  0  0  0
   45.1125   36.6482   42.6878 H   0  0  0  0  0  0  0  0  0  0  0  0
   44.6168   33.8209   48.1586 H   0  0  0  0  0  0  0  0  0  0  0  0
   45.3886   31.6763   49.4099 H   0  0  0  0  0  0  0  0  0  0  0  0
   46.8926   29.5147   48.8354 H   0  0  0  0  0  0  0  0  0  0  0  0
   48.2391   28.4255   47.0435 H   0  0  0  0  0  0  0  0  0  0  0  0
   48.4650   29.5282   44.8247 H   0  0  0  0  0  0  0  0  0  0  0  0
   47.3420   31.7162   44.3923 H   0  0  0  0  0  0  0  0  0  0  0  0
   48.8958   35.7524   42.6531 H   0  0  0  0  0  0  0  0  0  0  0  0
   49.4510   35.1588   40.0518 H   0  0  0  0  0  0  0  0  0  0  0  0
   46.3686   33.4156   38.4386 H   0  0  0  0  0  0  0  0  0  0  0  0
   47.8198   32.0821   36.8398 H   0  0  0  0  0  0  0  0  0  0  0  0
   49.1918   32.9411   36.0898 H   0  0  0  0  0  0  0  0  0  0  0  0
  1  6  2  0
  2  1  1  0
  3  2  2  0
  3  4  1  0
  4  5  2  0
  5  6  1  0
  5  7  1  0
  7  8  2  0
  8  9  1  0
 10 11  2  0
 10  9  1  0
 12 11  1  0
 13 12  2  0
 14 13  1  0
 14 15  2  0
 15  7  1  0
 15 10  1  0
 16  3  1  0
 17 16  2  0
 18 17  1  0
 19 18  2  0
 19 20  1  0
 20 16  1  0
 21 19  1  0
 22 23  2  0
 22 21  1  0
 24 22  1  0
 25 23  1  0
  1 26  1  0
  2 27  1  0
  8 28  1  0
  9 29  1  0
 11 30  1  0
 12 31  1  0
 13 32  1  0
 14 33  1  0
 17 34  1  0
 18 35  1  0
 21 36  1  0
 24 37  1  0
 24 38  1  0
M  END
>  <Score>  (1) 
-7.35928

$$$$
