
     RDKit          3D

 49 52  0  0  0  0  0  0  0  0999 V2000
   46.5660   34.4420   42.5130 C   0  0  0  0  0  0  0  0  0  0  0  0
   47.7980   35.0390   42.3750 C   0  0  0  0  0  0  0  0  0  0  0  0
   48.4970   35.0390   41.1550 C   0  0  0  0  0  0  0  0  0  0  0  0
   47.8970   34.4050   40.0590 C   0  0  0  0  0  0  0  0  0  0  0  0
   46.6520   33.7970   40.1870 C   0  0  0  0  0  0  0  0  0  0  0  0
   46.0270   33.8370   41.4120 C   0  0  0  0  0  0  0  0  0  0  0  0
   44.7430   33.2090   41.5350 N   0  0  0  0  0  0  0  0  0  0  0  0
   44.4690   31.9690   41.9770 C   0  0  0  0  0  0  0  0  0  0  0  0
   43.1780   31.5180   42.0330 C   0  0  0  0  0  0  0  0  0  0  0  0
   42.1320   32.3170   41.6410 C   0  0  0  0  0  0  0  0  0  0  0  0
   40.9510   31.8590   41.7090 O   0  0  0  0  0  0  0  0  0  0  0  0
   42.4280   33.5750   41.1940 N   0  0  0  0  0  0  0  0  0  0  0  0
   43.6960   34.0020   41.1450 C   0  0  0  0  0  0  0  0  0  0  0  0
   43.8450   35.1850   40.7130 O   0  0  0  0  0  0  0  0  0  0  0  0
   41.3190   34.3610   40.8010 C   0  0  0  0  0  0  0  0  0  0  0  0
   41.3000   35.7010   41.1480 C   0  0  0  0  0  0  0  0  0  0  0  0
   40.1140   36.2480   40.6480 C   0  0  0  0  0  0  0  0  0  0  0  0
   39.4650   35.2210   40.0200 N   0  0  0  0  0  0  0  0  0  0  0  0
   40.1840   34.1340   40.1210 N   0  0  0  0  0  0  0  0  0  0  0  0
   44.5140   35.4430   45.5150 C   0  0  0  0  0  0  0  0  0  0  0  0
   45.0670   35.4770   44.2370 C   0  0  0  0  0  0  0  0  0  0  0  0
   45.9360   34.5020   43.8170 C   0  0  0  0  0  0  0  0  0  0  0  0
   46.2460   33.4850   44.7010 N   0  0  0  0  0  0  0  0  0  0  0  0
   45.6880   33.4740   45.9530 C   0  0  0  0  0  0  0  0  0  0  0  0
   44.8430   34.4290   46.3490 N   0  0  0  0  0  0  0  0  0  0  0  0
   46.0530   32.3530   46.8760 C   0  0  0  0  0  0  0  0  0  0  0  0
   44.9980   32.2230   47.9560 C   0  0  0  0  0  0  0  0  0  0  0  0
   47.3980   32.5320   47.4980 C   0  0  0  0  0  0  0  0  0  0  0  0
   45.9890   31.0770   46.0460 C   0  0  0  0  0  0  0  0  0  0  0  0
   48.2509   35.5324   43.2476 H   0  0  0  0  0  0  0  0  0  0  0  0
   49.4818   35.5206   41.0641 H   0  0  0  0  0  0  0  0  0  0  0  0
   48.4148   34.3878   39.0887 H   0  0  0  0  0  0  0  0  0  0  0  0
   46.1788   33.2964   39.3294 H   0  0  0  0  0  0  0  0  0  0  0  0
   45.2903   31.3108   42.2966 H   0  0  0  0  0  0  0  0  0  0  0  0
   42.9751   30.5002   42.3975 H   0  0  0  0  0  0  0  0  0  0  0  0
   42.0760   36.2375   41.7137 H   0  0  0  0  0  0  0  0  0  0  0  0
   39.7733   37.2898   40.7407 H   0  0  0  0  0  0  0  0  0  0  0  0
   38.5547   35.2926   39.5434 H   0  0  0  0  0  0  0  0  0  0  0  0
   43.8188   36.2302   45.8423 H   0  0  0  0  0  0  0  0  0  0  0  0
   44.8030   36.2980   43.5542 H   0  0  0  0  0  0  0  0  0  0  0  0
   45.4763   32.2819   48.9448 H   0  0  0  0  0  0  0  0  0  0  0  0
   44.2661   33.0377   47.8536 H   0  0  0  0  0  0  0  0  0  0  0  0
   44.4858   31.2549   47.8536 H   0  0  0  0  0  0  0  0  0  0  0  0
   47.3000   32.5190   48.5935 H   0  0  0  0  0  0  0  0  0  0  0  0
   48.0611   31.7142   47.1794 H   0  0  0  0  0  0  0  0  0  0  0  0
   47.8241   33.4948   47.1794 H   0  0  0  0  0  0  0  0  0  0  0  0
   45.9453   30.2056   46.7159 H   0  0  0  0  0  0  0  0  0  0  0  0
   45.0907   31.0970   45.4114 H   0  0  0  0  0  0  0  0  0  0  0  0
   46.8848   31.0071   45.4114 H   0  0  0  0  0  0  0  0  0  0  0  0
  1 22  1  0
  2  1  2  0
  3  2  1  0
  4  5  1  0
  4  3  2  0
  5  6  2  0
  6  7  1  0
  6  1  1  0
  7  8  1  0
  8  9  2  0
 10 11  2  0
 10  9  1  0
 12 10  1  0
 13 12  1  0
 13  7  1  0
 14 13  2  0
 15 16  1  0
 15 12  1  0
 17 16  2  0
 18 19  1  0
 18 17  1  0
 19 15  2  0
 20 25  2  0
 21 20  1  0
 22 21  2  0
 22 23  1  0
 23 24  2  0
 24 25  1  0
 24 26  1  0
 26 28  1  0
 26 27  1  0
 29 26  1  0
  2 30  1  0
  3 31  1  0
  4 32  1  0
  5 33  1  0
  8 34  1  0
  9 35  1  0
 16 36  1  0
 17 37  1  0
 18 38  1  0
 20 39  1  0
 21 40  1  0
 27 41  1  0
 27 42  1  0
 27 43  1  0
 28 44  1  0
 28 45  1  0
 28 46  1  0
 29 47  1  0
 29 48  1  0
 29 49  1  0
M  END
>  <Score>  (1) 
-8.00086

$$$$
