
     RDKit          3D

 37 41  0  0  0  0  0  0  0  0999 V2000
   44.6060   35.9930   44.3630 C   0  0  0  0  0  0  0  0  0  0  0  0
   45.4030   35.9550   43.1870 C   0  0  0  0  0  0  0  0  0  0  0  0
   46.3320   34.9080   43.0850 C   0  0  0  0  0  0  0  0  0  0  0  0
   46.4190   34.0050   44.0900 N   0  0  0  0  0  0  0  0  0  0  0  0
   45.6450   34.0790   45.1850 C   0  0  0  0  0  0  0  0  0  0  0  0
   44.7400   35.0550   45.3410 N   0  0  0  0  0  0  0  0  0  0  0  0
   45.7960   33.0920   46.1990 N   0  0  0  0  0  0  0  0  0  0  0  0
   45.2930   33.0020   47.4430 C   0  0  0  0  0  0  0  0  0  0  0  0
   45.7150   31.8750   48.0450 N   0  0  0  0  0  0  0  0  0  0  0  0
   46.5030   31.2040   47.2080 C   0  0  0  0  0  0  0  0  0  0  0  0
   47.2270   30.0410   47.1880 C   0  0  0  0  0  0  0  0  0  0  0  0
   47.2110   29.3160   48.2130 O   0  0  0  0  0  0  0  0  0  0  0  0
   47.9450   29.6420   46.1330 N   0  0  0  0  0  0  0  0  0  0  0  0
   47.9850   30.3900   45.0170 C   0  0  0  0  0  0  0  0  0  0  0  0
   48.6840   30.1400   43.8040 N   0  0  0  0  0  0  0  0  0  0  0  0
   47.2890   31.5430   44.9930 N   0  0  0  0  0  0  0  0  0  0  0  0
   46.5500   31.9650   46.0600 C   0  0  0  0  0  0  0  0  0  0  0  0
   47.1140   34.8930   41.9010 N   0  0  0  0  0  0  0  0  0  0  0  0
   48.3030   35.5620   41.8150 C   0  0  0  0  0  0  0  0  0  0  0  0
   48.8120   35.3600   40.5690 N   0  0  0  0  0  0  0  0  0  0  0  0
   47.9580   34.5810   39.8910 C   0  0  0  0  0  0  0  0  0  0  0  0
   48.0170   34.0950   38.5990 C   0  0  0  0  0  0  0  0  0  0  0  0
   46.9680   33.3170   38.2060 N   0  0  0  0  0  0  0  0  0  0  0  0
   45.9340   33.0350   39.0250 C   0  0  0  0  0  0  0  0  0  0  0  0
   45.8940   33.5250   40.3020 N   0  0  0  0  0  0  0  0  0  0  0  0
   46.8950   34.2900   40.7270 C   0  0  0  0  0  0  0  0  0  0  0  0
   49.1090   34.3940   37.7380 N   0  0  0  0  0  0  0  0  0  0  0  0
   43.8653   36.7970   44.4858 H   0  0  0  0  0  0  0  0  0  0  0  0
   45.2968   36.7103   42.3944 H   0  0  0  0  0  0  0  0  0  0  0  0
   44.6283   33.7470   47.9047 H   0  0  0  0  0  0  0  0  0  0  0  0
   48.4701   28.7569   46.1757 H   0  0  0  0  0  0  0  0  0  0  0  0
   48.6201   30.8109   43.0251 H   0  0  0  0  0  0  0  0  0  0  0  0
   49.2542   29.2880   43.7044 H   0  0  0  0  0  0  0  0  0  0  0  0
   48.7673   36.1593   42.6135 H   0  0  0  0  0  0  0  0  0  0  0  0
   45.1112   32.4021   38.6611 H   0  0  0  0  0  0  0  0  0  0  0  0
   49.1268   34.0180   36.7792 H   0  0  0  0  0  0  0  0  0  0  0  0
   49.8819   34.9865   38.0733 H   0  0  0  0  0  0  0  0  0  0  0  0
  1  6  2  0
  2  1  1  0
  3  2  2  0
  3  4  1  0
  4  5  2  0
  5  6  1  0
  5  7  1  0
  7  8  1  0
  8  9  2  0
 10  9  1  0
 11 10  1  0
 11 12  2  0
 13 11  1  0
 14 13  1  0
 15 14  1  0
 16 14  2  0
 16 17  1  0
 17  7  1  0
 17 10  2  0
 18  3  1  0
 19 18  1  0
 20 19  2  0
 21 20  1  0
 21 26  2  0
 22 21  1  0
 23 22  2  0
 23 24  1  0
 24 25  2  0
 25 26  1  0
 26 18  1  0
 27 22  1  0
  1 28  1  0
  2 29  1  0
  8 30  1  0
 13 31  1  0
 15 32  1  0
 15 33  1  0
 19 34  1  0
 24 35  1  0
 27 36  1  0
 27 37  1  0
M  END
>  <Score>  (1) 
-7.50807

$$$$
