
     RDKit          3D

 55 59  0  0  0  0  0  0  0  0999 V2000
   46.2120   32.0220   47.2920 C   0  0  0  0  0  0  0  0  0  0  0  0
   44.5050   35.0420   46.1750 C   0  0  0  0  0  0  0  0  0  0  0  0
   44.7320   35.0520   44.7900 C   0  0  0  0  0  0  0  0  0  0  0  0
   45.4880   34.0010   44.2250 C   0  0  0  0  0  0  0  0  0  0  0  0
   45.9480   33.0450   45.0510 N   0  0  0  0  0  0  0  0  0  0  0  0
   45.7020   33.0750   46.3960 C   0  0  0  0  0  0  0  0  0  0  0  0
   44.9900   34.0640   46.9380 N   0  0  0  0  0  0  0  0  0  0  0  0
   45.6890   34.0540   42.8340 N   0  0  0  0  0  0  0  0  0  0  0  0
   44.9170   33.9060   41.7610 C   0  0  0  0  0  0  0  0  0  0  0  0
   45.6470   34.0650   40.6320 N   0  0  0  0  0  0  0  0  0  0  0  0
   46.9090   34.3200   40.9820 C   0  0  0  0  0  0  0  0  0  0  0  0
   48.0490   34.5600   40.2190 C   0  0  0  0  0  0  0  0  0  0  0  0
   48.0300   34.5670   38.9870 O   0  0  0  0  0  0  0  0  0  0  0  0
   49.2220   34.7950   40.8250 N   0  0  0  0  0  0  0  0  0  0  0  0
   49.2380   34.7860   42.1660 C   0  0  0  0  0  0  0  0  0  0  0  0
   50.4180   35.0210   42.9230 N   0  0  0  0  0  0  0  0  0  0  0  0
   48.1560   34.5580   42.9030 N   0  0  0  0  0  0  0  0  0  0  0  0
   46.9390   34.3140   42.3700 C   0  0  0  0  0  0  0  0  0  0  0  0
   47.3590   32.5440   48.1260 C   0  0  0  0  0  0  0  0  0  0  0  0
   45.1480   31.4770   48.2080 C   0  0  0  0  0  0  0  0  0  0  0  0
   46.7650   30.9110   46.4040 C   0  0  0  0  0  0  0  0  0  0  0  0
   46.0440   29.6030   46.6510 C   0  0  0  0  0  0  0  0  0  0  0  0
   46.6490   28.6710   47.4240 C   0  0  0  0  0  0  0  0  0  0  0  0
   45.4590   27.2660   47.4670 S   0  0  0  0  0  0  0  0  0  0  0  0
   44.2900   28.2570   46.3620 C   0  0  0  0  0  0  0  0  0  0  0  0
   44.8870   29.2400   46.2070 N   0  0  0  0  0  0  0  0  0  0  0  0
   43.0470   27.6130   46.0090 N   0  0  0  0  0  0  0  0  0  0  0  0
   42.0440   28.2430   45.1690 C   0  0  0  0  0  0  0  0  0  0  0  0
   40.7300   27.5450   45.4870 C   0  0  0  0  0  0  0  0  0  0  0  0
   40.9330   26.1950   45.3350 O   0  0  0  0  0  0  0  0  0  0  0  0
   41.6570   25.6290   46.3810 C   0  0  0  0  0  0  0  0  0  0  0  0
   42.9760   26.2940   46.6070 C   0  0  0  0  0  0  0  0  0  0  0  0
   43.9197   35.8514   46.6357 H   0  0  0  0  0  0  0  0  0  0  0  0
   44.3307   35.8591   44.1595 H   0  0  0  0  0  0  0  0  0  0  0  0
   43.8396   33.6859   41.7872 H   0  0  0  0  0  0  0  0  0  0  0  0
   50.0780   34.9755   40.2813 H   0  0  0  0  0  0  0  0  0  0  0  0
   50.3815   35.0041   43.9522 H   0  0  0  0  0  0  0  0  0  0  0  0
   51.3095   35.2082   42.4423 H   0  0  0  0  0  0  0  0  0  0  0  0
   47.1164   32.4336   49.1932 H   0  0  0  0  0  0  0  0  0  0  0  0
   48.2698   31.9717   47.8959 H   0  0  0  0  0  0  0  0  0  0  0  0
   47.5257   33.6067   47.8959 H   0  0  0  0  0  0  0  0  0  0  0  0
   45.4504   31.6319   49.2542 H   0  0  0  0  0  0  0  0  0  0  0  0
   44.1988   31.9999   48.0194 H   0  0  0  0  0  0  0  0  0  0  0  0
   45.0177   30.4011   48.0194 H   0  0  0  0  0  0  0  0  0  0  0  0
   47.8351   30.7774   46.6209 H   0  0  0  0  0  0  0  0  0  0  0  0
   46.6153   31.1982   45.3528 H   0  0  0  0  0  0  0  0  0  0  0  0
   47.6306   28.7377   47.9159 H   0  0  0  0  0  0  0  0  0  0  0  0
   42.2986   28.1124   44.1069 H   0  0  0  0  0  0  0  0  0  0  0  0
   41.9814   29.3246   45.3595 H   0  0  0  0  0  0  0  0  0  0  0  0
   40.4283   27.7654   46.5216 H   0  0  0  0  0  0  0  0  0  0  0  0
   39.9325   27.8952   44.8152 H   0  0  0  0  0  0  0  0  0  0  0  0
   41.0618   25.7092   47.3026 H   0  0  0  0  0  0  0  0  0  0  0  0
   41.8591   24.5818   46.1116 H   0  0  0  0  0  0  0  0  0  0  0  0
   43.7662   25.6662   46.1695 H   0  0  0  0  0  0  0  0  0  0  0  0
   43.1062   26.4138   47.6927 H   0  0  0  0  0  0  0  0  0  0  0  0
  1 19  1  0
  1 20  1  0
  2  7  2  0
  3  2  1  0
  4  3  2  0
  4  5  1  0
  5  6  2  0
  6  7  1  0
  6  1  1  0
  8  4  1  0
  9  8  1  0
 10 11  1  0
 10  9  2  0
 11 18  2  0
 12 14  1  0
 12 11  1  0
 13 12  2  0
 14 15  1  0
 15 17  2  0
 15 16  1  0
 18  8  1  0
 18 17  1  0
 21 22  1  0
 21  1  1  0
 22 23  2  0
 23 24  1  0
 25 24  1  0
 26 25  2  0
 26 22  1  0
 27 25  1  0
 27 32  1  0
 28 29  1  0
 28 27  1  0
 30 29  1  0
 30 31  1  0
 31 32  1  0
  2 33  1  0
  3 34  1  0
  9 35  1  0
 14 36  1  0
 16 37  1  0
 16 38  1  0
 19 39  1  0
 19 40  1  0
 19 41  1  0
 20 42  1  0
 20 43  1  0
 20 44  1  0
 21 45  1  0
 21 46  1  0
 23 47  1  0
 28 48  1  0
 28 49  1  0
 29 50  1  0
 29 51  1  0
 31 52  1  0
 31 53  1  0
 32 54  1  0
 32 55  1  0
M  END
>  <Score>  (1) 
-7.59591

$$$$
