
     RDKit          3D

 32 34  0  0  0  0  0  0  0  0999 V2000
   44.5190   35.9360   44.7260 C   0  0  0  0  0  0  0  0  0  0  0  0
   45.0330   35.9460   43.4250 C   0  0  0  0  0  0  0  0  0  0  0  0
   45.9030   34.9340   43.0840 C   0  0  0  0  0  0  0  0  0  0  0  0
   46.2150   33.9900   44.0100 N   0  0  0  0  0  0  0  0  0  0  0  0
   45.6870   34.0160   45.2770 C   0  0  0  0  0  0  0  0  0  0  0  0
   44.8380   35.0010   45.6180 N   0  0  0  0  0  0  0  0  0  0  0  0
   46.5660   34.7030   41.8450 N   0  0  0  0  0  0  0  0  0  0  0  0
   47.8160   35.2320   41.7400 C   0  0  0  0  0  0  0  0  0  0  0  0
   48.6060   35.1080   40.6130 C   0  0  0  0  0  0  0  0  0  0  0  0
   48.0570   34.4030   39.5580 C   0  0  0  0  0  0  0  0  0  0  0  0
   48.8670   34.2730   38.3980 N   0  0  0  0  0  0  0  0  0  0  0  0
   46.8140   33.8800   39.6690 N   0  0  0  0  0  0  0  0  0  0  0  0
   46.0950   34.0290   40.7790 C   0  0  0  0  0  0  0  0  0  0  0  0
   44.9370   33.5640   40.9340 O   0  0  0  0  0  0  0  0  0  0  0  0
   46.0260   33.0060   46.2570 C   0  0  0  0  0  0  0  0  0  0  0  0
   45.4150   32.9390   47.4800 C   0  0  0  0  0  0  0  0  0  0  0  0
   45.6980   32.0010   48.4470 C   0  0  0  0  0  0  0  0  0  0  0  0
   46.6690   31.1150   48.0760 C   0  0  0  0  0  0  0  0  0  0  0  0
   47.3270   31.1190   46.8680 C   0  0  0  0  0  0  0  0  0  0  0  0
   46.9640   32.0840   46.0040 N   0  0  0  0  0  0  0  0  0  0  0  0
   44.4150   33.9350   47.7330 N   0  0  0  0  0  0  0  0  0  0  0  0
   43.8226   36.7336   45.0241 H   0  0  0  0  0  0  0  0  0  0  0  0
   44.7541   36.7291   42.7046 H   0  0  0  0  0  0  0  0  0  0  0  0
   48.2191   35.7884   42.5990 H   0  0  0  0  0  0  0  0  0  0  0  0
   49.6139   35.5452   40.5584 H   0  0  0  0  0  0  0  0  0  0  0  0
   49.8063   34.6950   38.3759 H   0  0  0  0  0  0  0  0  0  0  0  0
   48.5149   33.7568   37.5792 H   0  0  0  0  0  0  0  0  0  0  0  0
   45.1917   31.9682   49.4230 H   0  0  0  0  0  0  0  0  0  0  0  0
   46.9471   30.3360   48.8011 H   0  0  0  0  0  0  0  0  0  0  0  0
   48.1026   30.3783   46.6235 H   0  0  0  0  0  0  0  0  0  0  0  0
   43.9141   33.9449   48.6330 H   0  0  0  0  0  0  0  0  0  0  0  0
   44.1975   34.6405   47.0148 H   0  0  0  0  0  0  0  0  0  0  0  0
  1  6  2  0
  2  1  1  0
  3  2  2  0
  3  4  1  0
  4  5  2  0
  5  6  1  0
  5 15  1  0
  7  3  1  0
  8  7  1  0
  9  8  2  0
 10 12  2  0
 10  9  1  0
 11 10  1  0
 12 13  1  0
 13 14  2  0
 13  7  1  0
 15 16  2  0
 16 21  1  0
 16 17  1  0
 18 17  2  0
 19 18  1  0
 20 15  1  0
 20 19  2  0
  1 22  1  0
  2 23  1  0
  8 24  1  0
  9 25  1  0
 11 26  1  0
 11 27  1  0
 17 28  1  0
 18 29  1  0
 19 30  1  0
 21 31  1  0
 21 32  1  0
M  END
>  <Score>  (1) 
-7.35218

$$$$
