
     RDKit          3D

 43 48  0  0  0  0  0  0  0  0999 V2000
   48.2810   33.8230   38.3290 C   0  0  0  0  0  0  0  0  0  0  0  0
   48.0980   34.4470   37.1960 N   0  0  0  0  0  0  0  0  0  0  0  0
   48.6360   33.6680   36.2790 O   0  0  0  0  0  0  0  0  0  0  0  0
   49.1420   32.5880   36.8260 C   0  0  0  0  0  0  0  0  0  0  0  0
   48.9250   32.6600   38.1700 N   0  0  0  0  0  0  0  0  0  0  0  0
   46.8210   34.7710   42.0370 C   0  0  0  0  0  0  0  0  0  0  0  0
   48.0200   35.3360   41.7650 C   0  0  0  0  0  0  0  0  0  0  0  0
   48.6160   35.1010   40.5660 C   0  0  0  0  0  0  0  0  0  0  0  0
   47.8750   34.2490   39.6940 C   0  0  0  0  0  0  0  0  0  0  0  0
   46.3730   33.8380   40.6470 S   0  0  0  0  0  0  0  0  0  0  0  0
   44.4820   35.9880   44.7360 C   0  0  0  0  0  0  0  0  0  0  0  0
   45.1520   35.9780   43.4970 C   0  0  0  0  0  0  0  0  0  0  0  0
   46.0530   34.9180   43.2640 C   0  0  0  0  0  0  0  0  0  0  0  0
   46.2180   34.0090   44.2050 N   0  0  0  0  0  0  0  0  0  0  0  0
   45.5670   34.0410   45.3800 C   0  0  0  0  0  0  0  0  0  0  0  0
   44.7030   35.0280   45.6420 N   0  0  0  0  0  0  0  0  0  0  0  0
   49.8240   31.4700   36.1920 C   0  0  0  0  0  0  0  0  0  0  0  0
   49.3710   30.5720   35.2730 C   0  0  0  0  0  0  0  0  0  0  0  0
   50.4300   29.7240   35.0120 C   0  0  0  0  0  0  0  0  0  0  0  0
   51.4920   30.1400   35.7840 C   0  0  0  0  0  0  0  0  0  0  0  0
   51.1010   31.1740   36.4690 O   0  0  0  0  0  0  0  0  0  0  0  0
   52.7630   29.4980   35.7780 N   0  0  0  0  0  0  0  0  0  0  0  0
   53.3670   28.8130   36.7840 C   0  0  0  0  0  0  0  0  0  0  0  0
   54.5770   28.3670   36.3430 N   0  0  0  0  0  0  0  0  0  0  0  0
   54.7220   28.7750   35.0700 C   0  0  0  0  0  0  0  0  0  0  0  0
   55.7240   28.6280   34.1130 C   0  0  0  0  0  0  0  0  0  0  0  0
   56.7670   27.9890   34.4090 O   0  0  0  0  0  0  0  0  0  0  0  0
   55.5350   29.1760   32.9170 N   0  0  0  0  0  0  0  0  0  0  0  0
   54.4200   29.8750   32.5600 C   0  0  0  0  0  0  0  0  0  0  0  0
   54.4190   30.3770   31.2270 N   0  0  0  0  0  0  0  0  0  0  0  0
   53.4210   30.0420   33.4560 N   0  0  0  0  0  0  0  0  0  0  0  0
   53.5830   29.4930   34.6930 C   0  0  0  0  0  0  0  0  0  0  0  0
   48.5094   35.9814   42.5093 H   0  0  0  0  0  0  0  0  0  0  0  0
   49.5897   35.5324   40.2907 H   0  0  0  0  0  0  0  0  0  0  0  0
   43.7687   36.7944   44.9616 H   0  0  0  0  0  0  0  0  0  0  0  0
   44.9802   36.7619   42.7447 H   0  0  0  0  0  0  0  0  0  0  0  0
   45.7449   33.2541   46.1278 H   0  0  0  0  0  0  0  0  0  0  0  0
   48.3656   30.5305   34.8287 H   0  0  0  0  0  0  0  0  0  0  0  0
   50.4258   28.8727   34.3154 H   0  0  0  0  0  0  0  0  0  0  0  0
   52.9489   28.6461   37.7877 H   0  0  0  0  0  0  0  0  0  0  0  0
   56.2795   29.0654   32.2138 H   0  0  0  0  0  0  0  0  0  0  0  0
   53.6126   30.9159   30.8802 H   0  0  0  0  0  0  0  0  0  0  0  0
   55.2247   30.2011   30.6099 H   0  0  0  0  0  0  0  0  0  0  0  0
  1  9  1  0
  2  1  2  0
  3  4  1  0
  3  2  1  0
  4  5  2  0
  5  1  1  0
  6 13  1  0
  7  6  2  0
  8  7  1  0
  9  8  2  0
  9 10  1  0
 10  6  1  0
 11 16  2  0
 12 11  1  0
 13 12  2  0
 13 14  1  0
 14 15  2  0
 15 16  1  0
 17 21  1  0
 17  4  1  0
 18 17  2  0
 19 18  1  0
 19 20  2  0
 20 21  1  0
 22 20  1  0
 22 23  1  0
 24 23  2  0
 25 24  1  0
 26 27  2  0
 26 25  1  0
 28 26  1  0
 29 28  1  0
 29 31  2  0
 30 29  1  0
 31 32  1  0
 32 25  2  0
 32 22  1  0
  7 33  1  0
  8 34  1  0
 11 35  1  0
 12 36  1  0
 15 37  1  0
 18 38  1  0
 19 39  1  0
 23 40  1  0
 28 41  1  0
 30 42  1  0
 30 43  1  0
M  END
>  <Score>  (1) 
-7.04054

$$$$
