
     RDKit          3D

 43 46  0  0  0  0  0  0  0  0999 V2000
   46.7170   34.7020   41.7110 C   0  0  0  0  0  0  0  0  0  0  0  0
   44.5710   35.8260   44.5540 C   0  0  0  0  0  0  0  0  0  0  0  0
   45.1730   35.7660   43.2850 C   0  0  0  0  0  0  0  0  0  0  0  0
   46.0830   34.7700   43.0420 C   0  0  0  0  0  0  0  0  0  0  0  0
   46.3620   33.8840   44.0400 N   0  0  0  0  0  0  0  0  0  0  0  0
   45.7740   33.9550   45.2590 C   0  0  0  0  0  0  0  0  0  0  0  0
   44.8670   34.9450   45.5080 N   0  0  0  0  0  0  0  0  0  0  0  0
   46.0830   33.0070   46.3070 C   0  0  0  0  0  0  0  0  0  0  0  0
   45.3900   33.0380   47.5050 C   0  0  0  0  0  0  0  0  0  0  0  0
   45.6470   32.1490   48.5440 C   0  0  0  0  0  0  0  0  0  0  0  0
   46.6280   31.2590   48.2800 C   0  0  0  0  0  0  0  0  0  0  0  0
   47.3470   31.1870   47.1070 C   0  0  0  0  0  0  0  0  0  0  0  0
   47.0310   32.0830   46.1570 N   0  0  0  0  0  0  0  0  0  0  0  0
   44.3760   34.0240   47.6650 N   0  0  0  0  0  0  0  0  0  0  0  0
   48.0680   35.4020   41.6900 C   0  0  0  0  0  0  0  0  0  0  0  0
   49.1820   34.4470   41.8300 C   0  0  0  0  0  0  0  0  0  0  0  0
   50.2570   34.7180   42.5650 N   0  0  0  0  0  0  0  0  0  0  0  0
   51.0670   33.7070   42.5090 O   0  0  0  0  0  0  0  0  0  0  0  0
   50.5570   32.7610   41.7500 C   0  0  0  0  0  0  0  0  0  0  0  0
   49.3700   33.2280   41.3230 N   0  0  0  0  0  0  0  0  0  0  0  0
   51.1910   31.4960   41.4680 N   0  0  0  0  0  0  0  0  0  0  0  0
   52.1550   31.5530   40.5220 C   0  0  0  0  0  0  0  0  0  0  0  0
   52.7850   30.3660   40.2220 C   0  0  0  0  0  0  0  0  0  0  0  0
   52.4000   29.2290   40.8920 C   0  0  0  0  0  0  0  0  0  0  0  0
   53.0650   28.0170   40.5670 N   0  0  0  0  0  0  0  0  0  0  0  0
   51.4290   29.2570   41.8230 N   0  0  0  0  0  0  0  0  0  0  0  0
   50.7920   30.4010   42.1400 C   0  0  0  0  0  0  0  0  0  0  0  0
   49.8780   30.4780   43.0030 O   0  0  0  0  0  0  0  0  0  0  0  0
   46.8593   33.6459   41.4384 H   0  0  0  0  0  0  0  0  0  0  0  0
   46.0577   35.2114   40.9928 H   0  0  0  0  0  0  0  0  0  0  0  0
   43.8383   36.6192   44.7639 H   0  0  0  0  0  0  0  0  0  0  0  0
   44.9200   36.5003   42.5061 H   0  0  0  0  0  0  0  0  0  0  0  0
   45.0989   32.1693   49.4975 H   0  0  0  0  0  0  0  0  0  0  0  0
   46.8734   30.5309   49.0672 H   0  0  0  0  0  0  0  0  0  0  0  0
   48.1370   30.4366   46.9564 H   0  0  0  0  0  0  0  0  0  0  0  0
   43.8412   34.0749   48.5438 H   0  0  0  0  0  0  0  0  0  0  0  0
   44.1770   34.6866   46.9020 H   0  0  0  0  0  0  0  0  0  0  0  0
   48.1764   35.9380   40.7356 H   0  0  0  0  0  0  0  0  0  0  0  0
   48.1055   36.0980   42.5410 H   0  0  0  0  0  0  0  0  0  0  0  0
   52.4212   32.4949   40.0200 H   0  0  0  0  0  0  0  0  0  0  0  0
   53.5796   30.3283   39.4623 H   0  0  0  0  0  0  0  0  0  0  0  0
   52.8060   27.1429   41.0464 H   0  0  0  0  0  0  0  0  0  0  0  0
   53.8063   28.0121   39.8519 H   0  0  0  0  0  0  0  0  0  0  0  0
  1  4  1  0
  2  7  2  0
  3  2  1  0
  4  3  2  0
  4  5  1  0
  5  6  2  0
  6  7  1  0
  6  8  1  0
  8  9  2  0
  9 14  1  0
  9 10  1  0
 11 10  2  0
 12 11  1  0
 13  8  1  0
 13 12  2  0
 15  1  1  0
 15 16  1  0
 16 17  2  0
 18 17  1  0
 19 18  1  0
 20 19  2  0
 20 16  1  0
 21 19  1  0
 21 27  1  0
 22 21  1  0
 23 22  2  0
 23 24  1  0
 24 26  2  0
 25 24  1  0
 26 27  1  0
 27 28  2  0
  1 29  1  0
  1 30  1  0
  2 31  1  0
  3 32  1  0
 10 33  1  0
 11 34  1  0
 12 35  1  0
 14 36  1  0
 14 37  1  0
 15 38  1  0
 15 39  1  0
 22 40  1  0
 23 41  1  0
 25 42  1  0
 25 43  1  0
M  END
>  <Score>  (1) 
-7.43733

$$$$
