
     RDKit          3D

 51 55  0  0  1  0  0  0  0  0999 V2000
   43.5280   35.4870   42.1600 C   0  0  0  0  0  0  0  0  0  0  0  0
   42.2310   35.5700   42.6130 C   0  0  0  0  0  0  0  0  0  0  0  0
   41.4350   35.1520   41.5540 C   0  0  0  0  0  0  0  0  0  0  0  0
   42.3000   34.8590   40.5680 N   0  0  0  0  0  0  0  0  0  0  0  0
   43.5700   35.0380   40.8680 N   0  0  0  0  0  0  0  0  0  0  0  0
   43.0030   34.6300   38.2740 N   0  0  0  0  0  0  0  0  0  0  0  0
   43.8720   33.4590   38.2530 C   0  0  0  0  0  0  0  0  0  0  0  0
   43.0770   32.2890   38.7450 C   0  0  0  0  0  0  0  0  0  0  0  0
   41.7750   32.8700   39.2370 C   0  0  0  0  0  0  0  0  0  0  0  0
   41.9720   34.3700   39.2260 C   0  0  1  0  0  0  0  0  0  0  0  0
   40.6860   34.9630   38.7130 C   0  0  0  0  0  0  0  0  0  0  0  0
   39.7150   34.9670   39.8580 C   0  0  0  0  0  0  0  0  0  0  0  0
   38.5860   34.0450   39.4390 C   0  0  0  0  0  0  0  0  0  0  0  0
   38.5830   34.2380   37.9510 C   0  0  0  0  0  0  0  0  0  0  0  0
   40.0730   34.1760   37.6050 C   0  0  0  0  0  0  0  0  0  0  0  0
   44.7020   35.8440   42.9850 C   0  0  0  0  0  0  0  0  0  0  0  0
   45.3040   36.8800   42.7540 O   0  0  0  0  0  0  0  0  0  0  0  0
   44.5960   35.2170   45.3210 C   0  0  0  0  0  0  0  0  0  0  0  0
   45.1250   34.9700   44.0510 C   0  0  0  0  0  0  0  0  0  0  0  0
   45.9940   33.9400   43.8840 C   0  0  0  0  0  0  0  0  0  0  0  0
   46.3130   33.1860   44.9780 N   0  0  0  0  0  0  0  0  0  0  0  0
   45.8160   33.4130   46.1890 C   0  0  0  0  0  0  0  0  0  0  0  0
   44.9420   34.4440   46.3710 N   0  0  0  0  0  0  0  0  0  0  0  0
   46.2430   32.5470   47.2180 N   0  0  0  0  0  0  0  0  0  0  0  0
   47.3200   31.8130   47.4310 N   0  0  0  0  0  0  0  0  0  0  0  0
   47.2060   31.1510   48.6210 C   0  0  0  0  0  0  0  0  0  0  0  0
   45.9920   31.5120   49.1480 C   0  0  0  0  0  0  0  0  0  0  0  0
   45.3920   32.4030   48.2360 C   0  0  0  0  0  0  0  0  0  0  0  0
   41.8945   35.8990   43.6072 H   0  0  0  0  0  0  0  0  0  0  0  0
   40.3378   35.0773   41.5281 H   0  0  0  0  0  0  0  0  0  0  0  0
   42.5928   34.7824   37.3416 H   0  0  0  0  0  0  0  0  0  0  0  0
   44.2200   33.2698   37.2268 H   0  0  0  0  0  0  0  0  0  0  0  0
   44.7514   33.6221   38.8933 H   0  0  0  0  0  0  0  0  0  0  0  0
   42.8959   31.5754   37.9277 H   0  0  0  0  0  0  0  0  0  0  0  0
   43.6055   31.7386   39.5373 H   0  0  0  0  0  0  0  0  0  0  0  0
   40.9498   32.5857   38.5675 H   0  0  0  0  0  0  0  0  0  0  0  0
   41.5160   32.4998   40.2399 H   0  0  0  0  0  0  0  0  0  0  0  0
   40.9088   35.9659   38.3200 H   0  0  0  0  0  0  0  0  0  0  0  0
   40.1980   34.5917   40.7723 H   0  0  0  0  0  0  0  0  0  0  0  0
   39.3512   35.9812   40.0794 H   0  0  0  0  0  0  0  0  0  0  0  0
   38.7988   33.0000   39.7088 H   0  0  0  0  0  0  0  0  0  0  0  0
   37.6229   34.2647   39.9229 H   0  0  0  0  0  0  0  0  0  0  0  0
   38.0244   33.4354   37.4473 H   0  0  0  0  0  0  0  0  0  0  0  0
   38.0974   35.1718   37.6312 H   0  0  0  0  0  0  0  0  0  0  0  0
   40.4391   33.1387   37.6024 H   0  0  0  0  0  0  0  0  0  0  0  0
   40.3105   34.5641   36.6035 H   0  0  0  0  0  0  0  0  0  0  0  0
   43.8913   36.0491   45.4655 H   0  0  0  0  0  0  0  0  0  0  0  0
   46.4281   33.7193   42.8977 H   0  0  0  0  0  0  0  0  0  0  0  0
   47.9412   30.4653   49.0674 H   0  0  0  0  0  0  0  0  0  0  0  0
   45.5668   31.1701   50.1031 H   0  0  0  0  0  0  0  0  0  0  0  0
   44.4101   32.8872   48.3427 H   0  0  0  0  0  0  0  0  0  0  0  0
  1  2  1  0
  1 16  1  0
  3  2  2  0
  4  5  1  0
  4  3  1  0
  5  1  2  0
  6 10  1  0
  7  6  1  0
  7  8  1  0
  8  9  1  0
 10 11  1  0
 10  9  1  0
 10  4  1  1
 11 12  1  0
 13 12  1  0
 14 13  1  0
 15 14  1  0
 15 11  1  0
 16 19  1  0
 17 16  2  0
 18 23  2  0
 19 18  1  0
 20 19  2  0
 20 21  1  0
 21 22  2  0
 22 23  1  0
 22 24  1  0
 24 25  1  0
 24 28  1  0
 25 26  2  0
 26 27  1  0
 28 27  2  0
  2 29  1  0
  3 30  1  0
  6 31  1  0
  7 32  1  0
  7 33  1  0
  8 34  1  0
  8 35  1  0
  9 36  1  0
  9 37  1  0
 11 38  1  0
 12 39  1  0
 12 40  1  0
 13 41  1  0
 13 42  1  0
 14 43  1  0
 14 44  1  0
 15 45  1  0
 15 46  1  0
 18 47  1  0
 20 48  1  0
 26 49  1  0
 27 50  1  0
 28 51  1  0
M  END
>  <Score>  (1) 
-7.21972

$$$$
