
     RDKit          3D

 51 55  0  0  0  0  0  0  0  0999 V2000
   46.8720   34.7200   41.9140 C   0  0  0  0  0  0  0  0  0  0  0  0
   48.1940   35.1440   41.7090 C   0  0  0  0  0  0  0  0  0  0  0  0
   48.4390   34.7620   40.3890 C   0  0  0  0  0  0  0  0  0  0  0  0
   47.2790   34.1490   39.8960 C   0  0  0  0  0  0  0  0  0  0  0  0
   46.3680   34.1480   40.8490 O   0  0  0  0  0  0  0  0  0  0  0  0
   44.5010   36.0300   44.4530 C   0  0  0  0  0  0  0  0  0  0  0  0
   45.2300   35.9080   43.2260 C   0  0  0  0  0  0  0  0  0  0  0  0
   46.1130   34.8760   43.1470 C   0  0  0  0  0  0  0  0  0  0  0  0
   46.2660   34.0250   44.2020 N   0  0  0  0  0  0  0  0  0  0  0  0
   45.5660   34.1690   45.3410 C   0  0  0  0  0  0  0  0  0  0  0  0
   44.6790   35.1730   45.4730 N   0  0  0  0  0  0  0  0  0  0  0  0
   45.8290   33.2060   46.3590 N   0  0  0  0  0  0  0  0  0  0  0  0
   45.1880   33.1400   47.5340 N   0  0  0  0  0  0  0  0  0  0  0  0
   45.6540   32.1340   48.2670 C   0  0  0  0  0  0  0  0  0  0  0  0
   46.6540   31.4990   47.5470 C   0  0  0  0  0  0  0  0  0  0  0  0
   46.7490   32.1900   46.3470 C   0  0  0  0  0  0  0  0  0  0  0  0
   47.1310   33.6250   38.5900 N   0  0  0  0  0  0  0  0  0  0  0  0
   46.2100   32.6460   38.4090 C   0  0  0  0  0  0  0  0  0  0  0  0
   46.0050   32.0880   37.1710 C   0  0  0  0  0  0  0  0  0  0  0  0
   46.7600   32.5460   36.1080 C   0  0  0  0  0  0  0  0  0  0  0  0
   46.5920   32.0550   34.9620 O   0  0  0  0  0  0  0  0  0  0  0  0
   47.6750   33.5340   36.3400 N   0  0  0  0  0  0  0  0  0  0  0  0
   47.8530   34.0640   37.5750 C   0  0  0  0  0  0  0  0  0  0  0  0
   48.7080   34.9660   37.7230 O   0  0  0  0  0  0  0  0  0  0  0  0
   45.0060   31.0230   37.0420 C   0  0  0  0  0  0  0  0  0  0  0  0
   45.4220   29.7840   36.5290 N   0  0  0  0  0  0  0  0  0  0  0  0
   46.3000   28.9630   37.2660 C   0  0  0  0  0  0  0  0  0  0  0  0
   46.7130   27.8170   36.3180 C   0  0  0  0  0  0  0  0  0  0  0  0
   46.7390   28.3590   34.9700 N   0  0  0  0  0  0  0  0  0  0  0  0
   45.3990   28.6200   34.4590 C   0  0  0  0  0  0  0  0  0  0  0  0
   44.5400   29.1430   35.6150 C   0  0  0  0  0  0  0  0  0  0  0  0
   48.8694   35.6514   42.4136 H   0  0  0  0  0  0  0  0  0  0  0  0
   49.3763   34.9150   39.8340 H   0  0  0  0  0  0  0  0  0  0  0  0
   43.7746   36.8486   44.5637 H   0  0  0  0  0  0  0  0  0  0  0  0
   45.0838   36.6108   42.3925 H   0  0  0  0  0  0  0  0  0  0  0  0
   45.3060   31.8535   49.2721 H   0  0  0  0  0  0  0  0  0  0  0  0
   47.2486   30.6285   47.8613 H   0  0  0  0  0  0  0  0  0  0  0  0
   47.4444   31.9612   45.5260 H   0  0  0  0  0  0  0  0  0  0  0  0
   45.6183   32.2936   39.2667 H   0  0  0  0  0  0  0  0  0  0  0  0
   48.2440   33.8850   35.5565 H   0  0  0  0  0  0  0  0  0  0  0  0
   44.5933   30.8392   38.0450 H   0  0  0  0  0  0  0  0  0  0  0  0
   44.2953   31.4040   36.2938 H   0  0  0  0  0  0  0  0  0  0  0  0
   47.1849   29.5360   37.5802 H   0  0  0  0  0  0  0  0  0  0  0  0
   45.8192   28.5770   38.1769 H   0  0  0  0  0  0  0  0  0  0  0  0
   47.7102   27.4425   36.5924 H   0  0  0  0  0  0  0  0  0  0  0  0
   46.0031   26.9796   36.3872 H   0  0  0  0  0  0  0  0  0  0  0  0
   47.2698   29.2417   34.9769 H   0  0  0  0  0  0  0  0  0  0  0  0
   45.4456   29.3736   33.6590 H   0  0  0  0  0  0  0  0  0  0  0  0
   44.9625   27.6978   34.0479 H   0  0  0  0  0  0  0  0  0  0  0  0
   43.7972   29.8619   35.2390 H   0  0  0  0  0  0  0  0  0  0  0  0
   43.9958   28.3215   36.1038 H   0  0  0  0  0  0  0  0  0  0  0  0
  1  8  1  0
  2  1  2  0
  3  2  1  0
  4  3  2  0
  4  5  1  0
  5  1  1  0
  6 11  2  0
  7  6  1  0
  8  7  2  0
  8  9  1  0
  9 10  2  0
 10 11  1  0
 10 12  1  0
 12 13  1  0
 13 14  2  0
 15 14  1  0
 16 12  1  0
 16 15  2  0
 17  4  1  0
 18 17  1  0
 19 18  2  0
 20 22  1  0
 20 19  1  0
 21 20  2  0
 22 23  1  0
 23 24  2  0
 23 17  1  0
 25 19  1  0
 26 25  1  0
 26 27  1  0
 28 27  1  0
 29 28  1  0
 30 29  1  0
 30 31  1  0
 31 26  1  0
  2 32  1  0
  3 33  1  0
  6 34  1  0
  7 35  1  0
 14 36  1  0
 15 37  1  0
 16 38  1  0
 18 39  1  0
 22 40  1  0
 25 41  1  0
 25 42  1  0
 27 43  1  0
 27 44  1  0
 28 45  1  0
 28 46  1  0
 29 47  1  0
 30 48  1  0
 30 49  1  0
 31 50  1  0
 31 51  1  0
M  END
>  <Score>  (1) 
-7.15235

$$$$
