
     RDKit          3D

 35 38  0  0  0  0  0  0  0  0999 V2000
   46.9400   34.8310   41.9910 C   0  0  0  0  0  0  0  0  0  0  0  0
   48.1980   35.4000   41.9810 C   0  0  0  0  0  0  0  0  0  0  0  0
   48.9090   35.2840   40.8340 C   0  0  0  0  0  0  0  0  0  0  0  0
   48.4050   34.6460   39.7640 N   0  0  0  0  0  0  0  0  0  0  0  0
   47.1590   34.0920   39.7980 C   0  0  0  0  0  0  0  0  0  0  0  0
   46.4380   34.2020   40.9430 N   0  0  0  0  0  0  0  0  0  0  0  0
   46.6910   33.4330   38.6330 N   0  0  0  0  0  0  0  0  0  0  0  0
   45.7320   32.5010   38.8590 C   0  0  0  0  0  0  0  0  0  0  0  0
   45.1760   31.7700   37.7980 C   0  0  0  0  0  0  0  0  0  0  0  0
   45.6840   32.0830   36.5510 C   0  0  0  0  0  0  0  0  0  0  0  0
   45.1740   31.4160   35.5970 O   0  0  0  0  0  0  0  0  0  0  0  0
   46.6330   33.0050   36.3240 N   0  0  0  0  0  0  0  0  0  0  0  0
   47.1260   33.6720   37.3770 C   0  0  0  0  0  0  0  0  0  0  0  0
   48.0150   34.5440   37.2190 O   0  0  0  0  0  0  0  0  0  0  0  0
   44.4450   35.9870   44.5230 C   0  0  0  0  0  0  0  0  0  0  0  0
   45.1880   35.9310   43.3230 C   0  0  0  0  0  0  0  0  0  0  0  0
   46.1460   34.9340   43.2050 C   0  0  0  0  0  0  0  0  0  0  0  0
   46.3220   34.0710   44.2320 N   0  0  0  0  0  0  0  0  0  0  0  0
   45.5780   34.1600   45.3800 C   0  0  0  0  0  0  0  0  0  0  0  0
   44.6480   35.1200   45.5090 N   0  0  0  0  0  0  0  0  0  0  0  0
   45.8400   33.2040   46.4020 N   0  0  0  0  0  0  0  0  0  0  0  0
   45.1590   32.9120   47.4780 N   0  0  0  0  0  0  0  0  0  0  0  0
   45.7630   31.9340   48.1840 C   0  0  0  0  0  0  0  0  0  0  0  0
   46.9140   31.6030   47.4710 C   0  0  0  0  0  0  0  0  0  0  0  0
   46.9530   32.4180   46.3360 C   0  0  0  0  0  0  0  0  0  0  0  0
   48.6027   35.9216   42.8608 H   0  0  0  0  0  0  0  0  0  0  0  0
   49.9173   35.7200   40.7773 H   0  0  0  0  0  0  0  0  0  0  0  0
   45.3858   32.3158   39.8865 H   0  0  0  0  0  0  0  0  0  0  0  0
   44.3970   31.0077   37.9469 H   0  0  0  0  0  0  0  0  0  0  0  0
   46.9719   33.1941   35.3699 H   0  0  0  0  0  0  0  0  0  0  0  0
   43.6795   36.7676   44.6441 H   0  0  0  0  0  0  0  0  0  0  0  0
   45.0134   36.6521   42.5109 H   0  0  0  0  0  0  0  0  0  0  0  0
   45.4179   31.4889   49.1289 H   0  0  0  0  0  0  0  0  0  0  0  0
   47.6557   30.8402   47.7503 H   0  0  0  0  0  0  0  0  0  0  0  0
   47.7232   32.4243   45.5507 H   0  0  0  0  0  0  0  0  0  0  0  0
  1 17  1  0
  2  1  2  0
  3  2  1  0
  4  5  1  0
  4  3  2  0
  5  6  2  0
  6  1  1  0
  7  8  1  0
  7  5  1  0
  9  8  2  0
 10  9  1  0
 11 10  2  0
 12 10  1  0
 12 13  1  0
 13  7  1  0
 14 13  2  0
 15 20  2  0
 16 15  1  0
 17 16  2  0
 17 18  1  0
 18 19  2  0
 19 20  1  0
 19 21  1  0
 21 22  1  0
 22 23  2  0
 24 23  1  0
 25 21  1  0
 25 24  2  0
  2 26  1  0
  3 27  1  0
  8 28  1  0
  9 29  1  0
 12 30  1  0
 15 31  1  0
 16 32  1  0
 23 33  1  0
 24 34  1  0
 25 35  1  0
M  END
>  <Score>  (1) 
-7.48984

$$$$
