
     RDKit          3D

 54 59  0  0  1  0  0  0  0  0999 V2000
   46.7660   34.5290   41.9490 C   0  0  0  0  0  0  0  0  0  0  0  0
   44.4840   35.9520   44.5580 C   0  0  0  0  0  0  0  0  0  0  0  0
   45.1320   35.7880   43.3220 C   0  0  0  0  0  0  0  0  0  0  0  0
   46.0440   34.7640   43.2160 C   0  0  0  0  0  0  0  0  0  0  0  0
   46.2680   33.9880   44.2690 N   0  0  0  0  0  0  0  0  0  0  0  0
   45.6390   34.1560   45.4500 C   0  0  0  0  0  0  0  0  0  0  0  0
   44.7430   35.1330   45.6100 N   0  0  0  0  0  0  0  0  0  0  0  0
   45.9660   33.2440   46.5360 C   0  0  0  0  0  0  0  0  0  0  0  0
   45.0640   33.0520   47.5650 C   0  0  0  0  0  0  0  0  0  0  0  0
   45.5980   32.1510   48.4630 C   0  0  0  0  0  0  0  0  0  0  0  0
   46.8140   31.8200   47.9520 N   0  0  0  0  0  0  0  0  0  0  0  0
   47.0180   32.4710   46.8150 N   0  0  0  0  0  0  0  0  0  0  0  0
   49.0590   29.1750   48.8040 N   0  0  0  0  0  0  0  0  0  0  0  0
   47.9830   29.6110   48.1710 N   0  0  0  0  0  0  0  0  0  0  0  0
   47.8310   30.9430   48.4140 C   0  0  0  0  0  0  0  0  0  0  0  0
   48.8550   31.3310   49.2240 C   0  0  0  0  0  0  0  0  0  0  0  0
   49.6020   30.2240   49.4520 C   0  0  0  0  0  0  0  0  0  0  0  0
   48.0520   35.3220   42.0050 C   0  0  0  0  0  0  0  0  0  0  0  0
   49.2830   34.5170   41.8380 C   0  0  1  0  0  0  0  0  0  0  0  0
   49.3530   33.2580   42.6780 C   0  0  0  0  0  0  0  0  0  0  0  0
   49.3290   33.2560   41.1360 C   0  0  1  0  0  0  0  0  0  0  0  0
   48.3240   32.4580   40.6690 O   0  0  0  0  0  0  0  0  0  0  0  0
   48.1500   32.6420   39.2470 C   0  0  0  0  0  0  0  0  0  0  0  0
   49.2830   32.6380   38.4690 C   0  0  0  0  0  0  0  0  0  0  0  0
   49.1080   32.8250   37.1170 C   0  0  0  0  0  0  0  0  0  0  0  0
   47.8990   33.0090   36.4830 C   0  0  0  0  0  0  0  0  0  0  0  0
   46.7760   33.0030   37.2830 C   0  0  0  0  0  0  0  0  0  0  0  0
   45.5730   33.1380   36.6560 C   0  0  0  0  0  0  0  0  0  0  0  0
   44.3940   33.0910   37.3700 C   0  0  0  0  0  0  0  0  0  0  0  0
   44.5160   32.8980   38.7530 C   0  0  0  0  0  0  0  0  0  0  0  0
   45.7460   32.7720   39.3230 C   0  0  0  0  0  0  0  0  0  0  0  0
   46.9330   32.8200   38.6360 C   0  0  0  0  0  0  0  0  0  0  0  0
   46.1536   34.8660   41.0997 H   0  0  0  0  0  0  0  0  0  0  0  0
   46.9769   33.4576   41.8162 H   0  0  0  0  0  0  0  0  0  0  0  0
   43.7499   36.7626   44.6763 H   0  0  0  0  0  0  0  0  0  0  0  0
   44.9181   36.4528   42.4721 H   0  0  0  0  0  0  0  0  0  0  0  0
   44.0811   33.5379   47.6537 H   0  0  0  0  0  0  0  0  0  0  0  0
   45.1393   31.7805   49.3916 H   0  0  0  0  0  0  0  0  0  0  0  0
   49.4169   28.2092   48.8020 H   0  0  0  0  0  0  0  0  0  0  0  0
   49.0390   32.3424   49.6154 H   0  0  0  0  0  0  0  0  0  0  0  0
   50.5110   30.1873   50.0704 H   0  0  0  0  0  0  0  0  0  0  0  0
   48.0246   36.0762   41.2047 H   0  0  0  0  0  0  0  0  0  0  0  0
   48.1024   35.7613   43.0122 H   0  0  0  0  0  0  0  0  0  0  0  0
   49.8770   35.4318   41.6953 H   0  0  0  0  0  0  0  0  0  0  0  0
   50.2724   32.9996   43.2239 H   0  0  0  0  0  0  0  0  0  0  0  0
   48.7615   32.8035   43.4865 H   0  0  0  0  0  0  0  0  0  0  0  0
   49.9202   33.0279   40.2369 H   0  0  0  0  0  0  0  0  0  0  0  0
   50.2818   32.4923   38.9062 H   0  0  0  0  0  0  0  0  0  0  0  0
   50.0109   32.8278   36.4887 H   0  0  0  0  0  0  0  0  0  0  0  0
   47.8329   33.1533   35.3945 H   0  0  0  0  0  0  0  0  0  0  0  0
   45.5423   33.2863   35.5665 H   0  0  0  0  0  0  0  0  0  0  0  0
   43.4140   33.1988   36.8821 H   0  0  0  0  0  0  0  0  0  0  0  0
   43.6140   32.8481   39.3806 H   0  0  0  0  0  0  0  0  0  0  0  0
   45.7915   32.6210   40.4116 H   0  0  0  0  0  0  0  0  0  0  0  0
  1 18  1  0
  1  4  1  0
  2  7  2  0
  3  2  1  0
  4  3  2  0
  4  5  1  0
  5  6  2  0
  6  7  1  0
  6  8  1  0
  8 12  2  0
  8  9  1  0
  9 10  2  0
 11 15  1  0
 11 10  1  0
 12 11  1  0
 13 17  1  0
 14 15  2  0
 14 13  1  0
 15 16  1  0
 16 17  2  0
 19 18  1  0
 19 20  1  0
 21 19  1  0
 21 20  1  0
 22 21  1  0
 23 22  1  0
 24 23  2  0
 25 24  1  0
 26 25  2  0
 26 27  1  0
 27 32  2  0
 28 27  1  0
 28 29  2  0
 29 30  1  0
 30 31  2  0
 32 23  1  0
 32 31  1  0
  1 33  1  0
  1 34  1  0
  2 35  1  0
  3 36  1  0
  9 37  1  0
 10 38  1  0
 13 39  1  0
 16 40  1  0
 17 41  1  0
 18 42  1  0
 18 43  1  0
 19 44  1  6
 20 45  1  0
 20 46  1  0
 21 47  1  6
 24 48  1  0
 25 49  1  0
 26 50  1  0
 28 51  1  0
 29 52  1  0
 30 53  1  0
 31 54  1  0
M  END
>  <Score>  (1) 
-7.02094

$$$$
