
     RDKit          3D

 40 43  0  0  0  0  0  0  0  0999 V2000
   46.9580   34.7030   41.7100 C   0  0  0  0  0  0  0  0  0  0  0  0
   48.2580   35.1290   41.4830 C   0  0  0  0  0  0  0  0  0  0  0  0
   48.5100   34.7130   40.1740 C   0  0  0  0  0  0  0  0  0  0  0  0
   47.3610   34.0710   39.6980 C   0  0  0  0  0  0  0  0  0  0  0  0
   46.4620   34.0950   40.6640 O   0  0  0  0  0  0  0  0  0  0  0  0
   44.5140   36.0100   44.1960 C   0  0  0  0  0  0  0  0  0  0  0  0
   45.2500   35.8800   42.9680 C   0  0  0  0  0  0  0  0  0  0  0  0
   46.1900   34.8780   42.9260 C   0  0  0  0  0  0  0  0  0  0  0  0
   46.3640   34.0900   44.0220 N   0  0  0  0  0  0  0  0  0  0  0  0
   45.6560   34.2390   45.1570 C   0  0  0  0  0  0  0  0  0  0  0  0
   44.7180   35.2150   45.2430 N   0  0  0  0  0  0  0  0  0  0  0  0
   45.9190   33.3580   46.2460 N   0  0  0  0  0  0  0  0  0  0  0  0
   46.9190   32.4740   46.0650 C   0  0  0  0  0  0  0  0  0  0  0  0
   47.1630   31.6150   47.1440 C   0  0  0  0  0  0  0  0  0  0  0  0
   46.3870   31.7240   48.2950 C   0  0  0  0  0  0  0  0  0  0  0  0
   46.5500   30.9870   49.3020 O   0  0  0  0  0  0  0  0  0  0  0  0
   45.3910   32.6440   48.4050 N   0  0  0  0  0  0  0  0  0  0  0  0
   45.1730   33.4600   47.3530 C   0  0  0  0  0  0  0  0  0  0  0  0
   44.2470   34.3040   47.4780 O   0  0  0  0  0  0  0  0  0  0  0  0
   47.2050   33.5000   38.4090 N   0  0  0  0  0  0  0  0  0  0  0  0
   46.3590   32.4650   38.2700 C   0  0  0  0  0  0  0  0  0  0  0  0
   46.1650   31.8670   37.0400 C   0  0  0  0  0  0  0  0  0  0  0  0
   46.8650   32.3600   35.9510 C   0  0  0  0  0  0  0  0  0  0  0  0
   46.6750   31.8010   34.8370 O   0  0  0  0  0  0  0  0  0  0  0  0
   47.6920   33.3910   36.1520 N   0  0  0  0  0  0  0  0  0  0  0  0
   47.8680   33.9650   37.3680 C   0  0  0  0  0  0  0  0  0  0  0  0
   48.6660   34.9330   37.4740 O   0  0  0  0  0  0  0  0  0  0  0  0
   45.2100   30.7340   36.9830 C   0  0  0  0  0  0  0  0  0  0  0  0
   48.9295   35.6657   42.1693 H   0  0  0  0  0  0  0  0  0  0  0  0
   49.4459   34.8633   39.6158 H   0  0  0  0  0  0  0  0  0  0  0  0
   43.7512   36.7988   44.2731 H   0  0  0  0  0  0  0  0  0  0  0  0
   45.0710   36.5450   42.1102 H   0  0  0  0  0  0  0  0  0  0  0  0
   47.5036   32.4298   45.1342 H   0  0  0  0  0  0  0  0  0  0  0  0
   47.9611   30.8605   47.0827 H   0  0  0  0  0  0  0  0  0  0  0  0
   44.8232   32.7151   49.2614 H   0  0  0  0  0  0  0  0  0  0  0  0
   45.8134   32.0888   39.1480 H   0  0  0  0  0  0  0  0  0  0  0  0
   48.2178   33.7652   35.3493 H   0  0  0  0  0  0  0  0  0  0  0  0
   44.9482   30.4234   38.0052 H   0  0  0  0  0  0  0  0  0  0  0  0
   44.3000   31.0479   36.4507 H   0  0  0  0  0  0  0  0  0  0  0  0
   45.6734   29.8902   36.4507 H   0  0  0  0  0  0  0  0  0  0  0  0
  1  8  1  0
  2  1  2  0
  3  2  1  0
  4  3  2  0
  4  5  1  0
  5  1  1  0
  6 11  2  0
  7  6  1  0
  8  7  2  0
  8  9  1  0
  9 10  2  0
 10 11  1  0
 10 12  1  0
 12 18  1  0
 13 12  1  0
 13 14  2  0
 14 15  1  0
 15 17  1  0
 15 16  2  0
 18 19  2  0
 18 17  1  0
 20  4  1  0
 21 20  1  0
 22 21  2  0
 23 25  1  0
 23 22  1  0
 24 23  2  0
 25 26  1  0
 26 27  2  0
 26 20  1  0
 28 22  1  0
  2 29  1  0
  3 30  1  0
  6 31  1  0
  7 32  1  0
 13 33  1  0
 14 34  1  0
 17 35  1  0
 21 36  1  0
 25 37  1  0
 28 38  1  0
 28 39  1  0
 28 40  1  0
M  END
>  <Score>  (1) 
-8.13402

$$$$
