
     RDKit          3D

 45 48  0  0  1  0  0  0  0  0999 V2000
   47.2430   34.9190   41.8580 C   0  0  0  0  0  0  0  0  0  0  0  0
   48.4890   35.5340   41.7810 C   0  0  0  0  0  0  0  0  0  0  0  0
   49.0140   35.3270   40.5680 N   0  0  0  0  0  0  0  0  0  0  0  0
   48.1300   34.5950   39.8660 C   0  0  0  0  0  0  0  0  0  0  0  0
   48.2030   34.1250   38.5720 C   0  0  0  0  0  0  0  0  0  0  0  0
   47.1540   33.3980   38.0970 C   0  0  0  0  0  0  0  0  0  0  0  0
   46.0110   33.0940   38.8270 C   0  0  0  0  0  0  0  0  0  0  0  0
   46.0160   33.5980   40.1070 C   0  0  0  0  0  0  0  0  0  0  0  0
   47.0050   34.3200   40.6450 C   0  0  0  0  0  0  0  0  0  0  0  0
   44.5390   35.9180   44.2210 C   0  0  0  0  0  0  0  0  0  0  0  0
   45.3830   35.9320   43.1130 C   0  0  0  0  0  0  0  0  0  0  0  0
   46.3680   34.9190   42.9910 C   0  0  0  0  0  0  0  0  0  0  0  0
   46.3930   34.0100   43.9940 N   0  0  0  0  0  0  0  0  0  0  0  0
   45.5830   34.0040   45.0490 C   0  0  0  0  0  0  0  0  0  0  0  0
   44.6560   34.9530   45.1690 N   0  0  0  0  0  0  0  0  0  0  0  0
   45.6960   32.9970   46.0500 N   0  0  0  0  0  0  0  0  0  0  0  0
   45.3640   33.2290   47.3940 C   0  0  0  0  0  0  0  0  0  0  0  0
   44.4640   34.1420   47.6500 N   0  0  0  0  0  0  0  0  0  0  0  0
   46.0460   32.4370   48.3860 N   0  0  0  0  0  0  0  0  0  0  0  0
   44.2530   34.2760   48.6820 H   0  0  0  0  0  0  0  0  0  0  0  0
   44.8030   33.2320   40.7980 N   0  0  0  0  0  0  0  0  0  0  0  0
   43.4450   33.6820   40.9850 C   0  0  0  0  0  0  0  0  0  0  0  0
   42.6990   32.4880   41.5170 C   0  0  0  0  0  0  0  0  0  0  0  0
   43.7660   31.9440   42.4650 C   0  0  0  0  0  0  0  0  0  0  0  0
   44.9780   31.9960   41.5720 C   0  0  1  0  0  0  0  0  0  0  0  0
   45.0820   30.7950   40.7390 C   0  0  0  0  0  0  0  0  0  0  0  0
   44.2420   30.3020   39.9850 O   0  0  0  0  0  0  0  0  0  0  0  0
   48.9680   36.1023   42.5919 H   0  0  0  0  0  0  0  0  0  0  0  0
   49.9272   35.6658   40.2331 H   0  0  0  0  0  0  0  0  0  0  0  0
   49.0814   34.3309   37.9427 H   0  0  0  0  0  0  0  0  0  0  0  0
   47.2156   33.0255   37.0638 H   0  0  0  0  0  0  0  0  0  0  0  0
   45.1777   32.5037   38.4182 H   0  0  0  0  0  0  0  0  0  0  0  0
   43.7697   36.6968   44.3291 H   0  0  0  0  0  0  0  0  0  0  0  0
   45.2872   36.7149   42.3462 H   0  0  0  0  0  0  0  0  0  0  0  0
   46.0342   32.0631   45.7773 H   0  0  0  0  0  0  0  0  0  0  0  0
   45.8361   32.5711   49.3854 H   0  0  0  0  0  0  0  0  0  0  0  0
   46.7434   31.7368   48.0956 H   0  0  0  0  0  0  0  0  0  0  0  0
   43.4101   34.5109   41.7072 H   0  0  0  0  0  0  0  0  0  0  0  0
   43.0050   34.0559   40.0488 H   0  0  0  0  0  0  0  0  0  0  0  0
   41.7821   32.7786   42.0508 H   0  0  0  0  0  0  0  0  0  0  0  0
   42.3350   31.7803   40.7577 H   0  0  0  0  0  0  0  0  0  0  0  0
   43.8866   32.5844   43.3512 H   0  0  0  0  0  0  0  0  0  0  0  0
   43.5456   30.9501   42.8817 H   0  0  0  0  0  0  0  0  0  0  0  0
   45.9256   32.0101   42.1305 H   0  0  0  0  0  0  0  0  0  0  0  0
   46.0418   30.2604   40.7947 H   0  0  0  0  0  0  0  0  0  0  0  0
  1 12  1  0
  2  1  2  0
  3  2  1  0
  4  3  1  0
  4  9  2  0
  5  4  1  0
  6  5  2  0
  6  7  1  0
  7  8  2  0
  8  9  1  0
  8 21  1  0
  9  1  1  0
 10 15  2  0
 11 10  1  0
 12 11  2  0
 12 13  1  0
 13 14  2  0
 14 15  1  0
 14 16  1  0
 16 17  1  0
 17 18  2  0
 17 19  1  0
 18 20  1  0
 21 22  1  0
 21 25  1  0
 22 23  1  0
 23 24  1  0
 25 24  1  0
 26 25  1  0
 27 26  2  0
  2 28  1  0
  3 29  1  0
  5 30  1  0
  6 31  1  0
  7 32  1  0
 10 33  1  0
 11 34  1  0
 16 35  1  0
 19 36  1  0
 19 37  1  0
 22 38  1  0
 22 39  1  0
 23 40  1  0
 23 41  1  0
 24 42  1  0
 24 43  1  0
 25 44  1  1
 26 45  1  0
M  END
>  <Score>  (1) 
-7.55109

$$$$
