
     RDKit          3D

 39 42  0  0  0  0  0  0  0  0999 V2000
   44.5730   35.8150   44.5520 C   0  0  0  0  0  0  0  0  0  0  0  0
   45.1810   35.7610   43.2850 C   0  0  0  0  0  0  0  0  0  0  0  0
   46.0990   34.7670   43.0450 C   0  0  0  0  0  0  0  0  0  0  0  0
   46.3800   33.8800   44.0460 N   0  0  0  0  0  0  0  0  0  0  0  0
   45.7770   33.9540   45.2600 C   0  0  0  0  0  0  0  0  0  0  0  0
   44.8720   34.9330   45.4990 N   0  0  0  0  0  0  0  0  0  0  0  0
   46.0880   33.0040   46.3060 C   0  0  0  0  0  0  0  0  0  0  0  0
   45.3930   33.0350   47.5060 C   0  0  0  0  0  0  0  0  0  0  0  0
   45.6420   32.1500   48.5520 C   0  0  0  0  0  0  0  0  0  0  0  0
   46.6230   31.2640   48.2860 C   0  0  0  0  0  0  0  0  0  0  0  0
   47.3530   31.1720   47.1230 C   0  0  0  0  0  0  0  0  0  0  0  0
   47.0270   32.0850   46.1690 N   0  0  0  0  0  0  0  0  0  0  0  0
   44.3810   34.0170   47.6690 N   0  0  0  0  0  0  0  0  0  0  0  0
   46.7510   34.6950   41.7150 C   0  0  0  0  0  0  0  0  0  0  0  0
   48.1010   35.3860   41.7020 C   0  0  0  0  0  0  0  0  0  0  0  0
   49.2170   34.4250   41.8250 C   0  0  0  0  0  0  0  0  0  0  0  0
   50.2480   34.6450   42.6440 N   0  0  0  0  0  0  0  0  0  0  0  0
   51.0560   33.6350   42.5320 O   0  0  0  0  0  0  0  0  0  0  0  0
   50.5930   32.7570   41.6680 C   0  0  0  0  0  0  0  0  0  0  0  0
   49.4280   33.2560   41.2190 N   0  0  0  0  0  0  0  0  0  0  0  0
   51.1480   31.5250   41.2480 N   0  0  0  0  0  0  0  0  0  0  0  0
   52.1420   31.4380   40.3530 C   0  0  0  0  0  0  0  0  0  0  0  0
   52.4410   30.1180   40.1700 C   0  0  0  0  0  0  0  0  0  0  0  0
   51.6010   29.4410   40.9760 N   0  0  0  0  0  0  0  0  0  0  0  0
   50.7980   30.3030   41.6460 C   0  0  0  0  0  0  0  0  0  0  0  0
   43.8353   36.6032   44.7629 H   0  0  0  0  0  0  0  0  0  0  0  0
   44.9282   36.4955   42.5062 H   0  0  0  0  0  0  0  0  0  0  0  0
   45.0912   32.1717   49.5039 H   0  0  0  0  0  0  0  0  0  0  0  0
   46.8644   30.5412   49.0793 H   0  0  0  0  0  0  0  0  0  0  0  0
   48.1400   30.4177   46.9762 H   0  0  0  0  0  0  0  0  0  0  0  0
   43.8474   34.0655   48.5486 H   0  0  0  0  0  0  0  0  0  0  0  0
   44.1803   34.6810   46.9076 H   0  0  0  0  0  0  0  0  0  0  0  0
   46.8913   33.6377   41.4458 H   0  0  0  0  0  0  0  0  0  0  0  0
   46.1011   35.2088   40.9914 H   0  0  0  0  0  0  0  0  0  0  0  0
   48.2090   35.9362   40.7556 H   0  0  0  0  0  0  0  0  0  0  0  0
   48.1423   36.0664   42.5653 H   0  0  0  0  0  0  0  0  0  0  0  0
   52.6330   32.2850   39.8516 H   0  0  0  0  0  0  0  0  0  0  0  0
   53.2077   29.6960   39.5036 H   0  0  0  0  0  0  0  0  0  0  0  0
   50.0139   30.0450   42.3731 H   0  0  0  0  0  0  0  0  0  0  0  0
  1  6  2  0
  2  1  1  0
  3  2  2  0
  3  4  1  0
  4  5  2  0
  5  6  1  0
  5  7  1  0
  7  8  2  0
  8 13  1  0
  8  9  1  0
 10  9  2  0
 11 10  1  0
 12  7  1  0
 12 11  2  0
 14  3  1  0
 15 14  1  0
 15 16  1  0
 16 17  2  0
 18 17  1  0
 19 18  1  0
 20 19  2  0
 20 16  1  0
 21 25  1  0
 21 19  1  0
 22 21  1  0
 23 22  2  0
 23 24  1  0
 24 25  2  0
  1 26  1  0
  2 27  1  0
  9 28  1  0
 10 29  1  0
 11 30  1  0
 13 31  1  0
 13 32  1  0
 14 33  1  0
 14 34  1  0
 15 35  1  0
 15 36  1  0
 22 37  1  0
 23 38  1  0
 25 39  1  0
M  END
>  <Score>  (1) 
-7.16843

$$$$
