
     RDKit          3D

 37 40  0  0  0  0  0  0  0  0999 V2000
   45.4420   35.1170   42.6750 C   0  0  0  0  0  0  0  0  0  0  0  0
   46.5640   34.9020   41.8360 C   0  0  0  0  0  0  0  0  0  0  0  0
   47.5970   34.1310   42.3260 C   0  0  0  0  0  0  0  0  0  0  0  0
   47.5050   33.6140   43.5690 N   0  0  0  0  0  0  0  0  0  0  0  0
   46.4340   33.8340   44.3410 C   0  0  0  0  0  0  0  0  0  0  0  0
   45.4200   34.5740   43.8970 N   0  0  0  0  0  0  0  0  0  0  0  0
   46.2420   33.3290   45.6650 N   0  0  0  0  0  0  0  0  0  0  0  0
   46.9940   32.3550   46.1980 C   0  0  0  0  0  0  0  0  0  0  0  0
   46.7410   31.9160   47.4860 C   0  0  0  0  0  0  0  0  0  0  0  0
   45.7000   32.5020   48.2070 C   0  0  0  0  0  0  0  0  0  0  0  0
   45.4870   32.0950   49.3640 O   0  0  0  0  0  0  0  0  0  0  0  0
   44.9770   33.4920   47.5950 N   0  0  0  0  0  0  0  0  0  0  0  0
   45.2420   33.8970   46.3510 C   0  0  0  0  0  0  0  0  0  0  0  0
   44.4860   34.8070   45.9520 O   0  0  0  0  0  0  0  0  0  0  0  0
   44.4600   35.8780   42.1450 O   0  0  0  0  0  0  0  0  0  0  0  0
   43.2540   35.4220   41.7400 C   0  0  0  0  0  0  0  0  0  0  0  0
   42.0560   35.3670   42.3190 O   0  0  0  0  0  0  0  0  0  0  0  0
   42.9070   34.8070   40.3980 C   0  0  0  0  0  0  0  0  0  0  0  0
   43.6180   34.2310   39.3700 C   0  0  0  0  0  0  0  0  0  0  0  0
   42.8420   33.8590   38.3620 N   0  0  0  0  0  0  0  0  0  0  0  0
   41.5600   34.1440   38.6180 C   0  0  0  0  0  0  0  0  0  0  0  0
   40.3750   33.9790   37.9520 C   0  0  0  0  0  0  0  0  0  0  0  0
   39.1790   34.3780   38.4870 C   0  0  0  0  0  0  0  0  0  0  0  0
   39.1780   34.9600   39.7300 C   0  0  0  0  0  0  0  0  0  0  0  0
   40.3830   35.1180   40.3810 C   0  0  0  0  0  0  0  0  0  0  0  0
   41.6230   34.7210   39.8600 C   0  0  0  0  0  0  0  0  0  0  0  0
   46.6093   35.3362   40.8264 H   0  0  0  0  0  0  0  0  0  0  0  0
   48.4875   33.9393   41.7094 H   0  0  0  0  0  0  0  0  0  0  0  0
   47.8101   31.9059   45.6129 H   0  0  0  0  0  0  0  0  0  0  0  0
   47.3509   31.1178   47.9341 H   0  0  0  0  0  0  0  0  0  0  0  0
   44.2049   33.9376   48.1110 H   0  0  0  0  0  0  0  0  0  0  0  0
   44.7094   34.0945   39.3835 H   0  0  0  0  0  0  0  0  0  0  0  0
   43.1801   33.4111   37.4983 H   0  0  0  0  0  0  0  0  0  0  0  0
   40.3839   33.5115   36.9563 H   0  0  0  0  0  0  0  0  0  0  0  0
   38.2397   34.2351   37.9326 H   0  0  0  0  0  0  0  0  0  0  0  0
   38.2384   35.2924   40.1956 H   0  0  0  0  0  0  0  0  0  0  0  0
   40.3710   35.5870   41.3759 H   0  0  0  0  0  0  0  0  0  0  0  0
  1  6  2  0
  2  3  2  0
  2  1  1  0
  3  4  1  0
  4  5  2  0
  5  7  1  0
  6  5  1  0
  7  8  1  0
  7 13  1  0
  8  9  2  0
  9 10  1  0
 10 11  2  0
 12 10  1  0
 13 12  1  0
 14 13  2  0
 15  1  1  0
 16 15  1  0
 16 17  2  0
 18 16  1  0
 19 18  2  0
 20 21  1  0
 20 19  1  0
 21 26  2  0
 22 23  2  0
 22 21  1  0
 23 24  1  0
 24 25  2  0
 26 25  1  0
 26 18  1  0
  2 27  1  0
  3 28  1  0
  8 29  1  0
  9 30  1  0
 12 31  1  0
 19 32  1  0
 20 33  1  0
 22 34  1  0
 23 35  1  0
 24 36  1  0
 25 37  1  0
M  END
>  <Score>  (1) 
-7.86494

$$$$
