
     RDKit          3D

 50 54  0  0  0  0  0  0  0  0999 V2000
   44.5090   35.1290   46.1180 C   0  0  0  0  0  0  0  0  0  0  0  0
   44.7600   35.1370   44.7320 C   0  0  0  0  0  0  0  0  0  0  0  0
   45.4220   34.0330   44.1590 C   0  0  0  0  0  0  0  0  0  0  0  0
   45.7760   33.0290   44.9840 N   0  0  0  0  0  0  0  0  0  0  0  0
   45.5180   33.0550   46.3080 C   0  0  0  0  0  0  0  0  0  0  0  0
   44.8900   34.0940   46.8740 N   0  0  0  0  0  0  0  0  0  0  0  0
   45.6480   34.0920   42.7740 N   0  0  0  0  0  0  0  0  0  0  0  0
   44.8950   33.9560   41.6850 C   0  0  0  0  0  0  0  0  0  0  0  0
   45.6330   34.1120   40.5600 N   0  0  0  0  0  0  0  0  0  0  0  0
   46.9110   34.3580   40.9550 C   0  0  0  0  0  0  0  0  0  0  0  0
   48.0610   34.5910   40.2130 C   0  0  0  0  0  0  0  0  0  0  0  0
   48.0660   34.6040   38.9630 O   0  0  0  0  0  0  0  0  0  0  0  0
   49.2320   34.8140   40.8310 N   0  0  0  0  0  0  0  0  0  0  0  0
   49.2080   34.7950   42.1680 C   0  0  0  0  0  0  0  0  0  0  0  0
   50.3810   35.0170   42.9510 N   0  0  0  0  0  0  0  0  0  0  0  0
   48.1100   34.5730   42.8880 N   0  0  0  0  0  0  0  0  0  0  0  0
   46.9060   34.3430   42.3290 C   0  0  0  0  0  0  0  0  0  0  0  0
   45.9120   31.9480   47.2140 C   0  0  0  0  0  0  0  0  0  0  0  0
   47.2100   32.2500   47.9250 C   0  0  0  0  0  0  0  0  0  0  0  0
   44.8400   31.6060   48.2130 C   0  0  0  0  0  0  0  0  0  0  0  0
   46.1660   30.7510   46.3190 C   0  0  0  0  0  0  0  0  0  0  0  0
   45.9560   29.4570   46.9720 C   0  0  0  0  0  0  0  0  0  0  0  0
   46.6070   28.7280   47.9390 C   0  0  0  0  0  0  0  0  0  0  0  0
   45.9930   27.5640   48.1940 N   0  0  0  0  0  0  0  0  0  0  0  0
   44.9210   27.5320   47.3770 C   0  0  0  0  0  0  0  0  0  0  0  0
   43.9750   26.5260   47.2720 C   0  0  0  0  0  0  0  0  0  0  0  0
   42.9260   26.6760   46.3590 C   0  0  0  0  0  0  0  0  0  0  0  0
   42.8480   27.8160   45.5790 C   0  0  0  0  0  0  0  0  0  0  0  0
   43.7990   28.8120   45.6940 C   0  0  0  0  0  0  0  0  0  0  0  0
   44.8550   28.6780   46.6040 C   0  0  0  0  0  0  0  0  0  0  0  0
   43.9944   35.9827   46.5831 H   0  0  0  0  0  0  0  0  0  0  0  0
   44.4456   35.9878   44.1096 H   0  0  0  0  0  0  0  0  0  0  0  0
   43.8155   33.7447   41.6970 H   0  0  0  0  0  0  0  0  0  0  0  0
   50.0999   34.9898   40.3049 H   0  0  0  0  0  0  0  0  0  0  0  0
   50.3256   34.9951   43.9793 H   0  0  0  0  0  0  0  0  0  0  0  0
   51.2827   35.1990   42.4876 H   0  0  0  0  0  0  0  0  0  0  0  0
   47.0496   32.2127   49.0126 H   0  0  0  0  0  0  0  0  0  0  0  0
   47.9664   31.5038   47.6401 H   0  0  0  0  0  0  0  0  0  0  0  0
   47.5593   33.2534   47.6401 H   0  0  0  0  0  0  0  0  0  0  0  0
   45.2347   31.7319   49.2320 H   0  0  0  0  0  0  0  0  0  0  0  0
   43.9778   32.2737   48.0687 H   0  0  0  0  0  0  0  0  0  0  0  0
   44.5238   30.5624   48.0687 H   0  0  0  0  0  0  0  0  0  0  0  0
   47.2083   30.7962   45.9703 H   0  0  0  0  0  0  0  0  0  0  0  0
   45.4380   30.8115   45.4966 H   0  0  0  0  0  0  0  0  0  0  0  0
   47.5252   29.0613   48.4448 H   0  0  0  0  0  0  0  0  0  0  0  0
   46.2802   26.8443   48.8725 H   0  0  0  0  0  0  0  0  0  0  0  0
   44.0474   25.6234   47.8966 H   0  0  0  0  0  0  0  0  0  0  0  0
   42.1641   25.8886   46.2613 H   0  0  0  0  0  0  0  0  0  0  0  0
   42.0222   27.9305   44.8614 H   0  0  0  0  0  0  0  0  0  0  0  0
   43.7262   29.7137   45.0682 H   0  0  0  0  0  0  0  0  0  0  0  0
  1  6  2  0
  2  1  1  0
  3  2  2  0
  3  4  1  0
  4  5  2  0
  5  6  1  0
  5 18  1  0
  7  3  1  0
  8  7  1  0
  9 10  1  0
  9  8  2  0
 10 17  2  0
 11 13  1  0
 11 10  1  0
 12 11  2  0
 13 14  1  0
 14 16  2  0
 14 15  1  0
 17  7  1  0
 17 16  1  0
 18 19  1  0
 18 20  1  0
 21 22  1  0
 21 18  1  0
 22 23  2  0
 23 24  1  0
 25 24  1  0
 26 25  2  0
 27 26  1  0
 28 29  1  0
 28 27  2  0
 29 30  2  0
 30 22  1  0
 30 25  1  0
  1 31  1  0
  2 32  1  0
  8 33  1  0
 13 34  1  0
 15 35  1  0
 15 36  1  0
 19 37  1  0
 19 38  1  0
 19 39  1  0
 20 40  1  0
 20 41  1  0
 20 42  1  0
 21 43  1  0
 21 44  1  0
 23 45  1  0
 24 46  1  0
 26 47  1  0
 27 48  1  0
 28 49  1  0
 29 50  1  0
M  END
>  <Score>  (1) 
-7.57719

$$$$
