
     RDKit          3D

 37 40  0  0  0  0  0  0  0  0999 V2000
   46.5990   34.6710   42.1600 C   0  0  0  0  0  0  0  0  0  0  0  0
   47.8040   35.3050   41.9880 C   0  0  0  0  0  0  0  0  0  0  0  0
   48.5570   35.1810   40.8170 C   0  0  0  0  0  0  0  0  0  0  0  0
   48.0560   34.3750   39.7780 C   0  0  0  0  0  0  0  0  0  0  0  0
   46.8290   33.7290   39.9490 C   0  0  0  0  0  0  0  0  0  0  0  0
   46.1340   33.8920   41.1290 C   0  0  0  0  0  0  0  0  0  0  0  0
   44.8920   33.2270   41.2810 N   0  0  0  0  0  0  0  0  0  0  0  0
   44.6750   32.0030   41.8230 C   0  0  0  0  0  0  0  0  0  0  0  0
   43.4060   31.5070   41.8940 C   0  0  0  0  0  0  0  0  0  0  0  0
   42.3270   32.2120   41.4300 C   0  0  0  0  0  0  0  0  0  0  0  0
   41.1720   31.7160   41.5150 O   0  0  0  0  0  0  0  0  0  0  0  0
   42.5720   33.4430   40.8890 N   0  0  0  0  0  0  0  0  0  0  0  0
   43.8260   33.9220   40.8240 C   0  0  0  0  0  0  0  0  0  0  0  0
   43.9130   35.0830   40.2960 O   0  0  0  0  0  0  0  0  0  0  0  0
   41.4490   34.1760   40.4070 C   0  0  0  0  0  0  0  0  0  0  0  0
   40.9130   35.1350   41.2600 C   0  0  0  0  0  0  0  0  0  0  0  0
   39.8430   35.6910   40.5470 C   0  0  0  0  0  0  0  0  0  0  0  0
   39.7990   35.0340   39.3160 C   0  0  0  0  0  0  0  0  0  0  0  0
   40.7670   34.1460   39.2780 O   0  0  0  0  0  0  0  0  0  0  0  0
   44.4330   36.0100   44.9350 C   0  0  0  0  0  0  0  0  0  0  0  0
   45.0440   35.9280   43.6840 C   0  0  0  0  0  0  0  0  0  0  0  0
   45.9050   34.8710   43.4140 C   0  0  0  0  0  0  0  0  0  0  0  0
   46.1250   33.9420   44.3930 N   0  0  0  0  0  0  0  0  0  0  0  0
   45.5060   34.0600   45.6070 C   0  0  0  0  0  0  0  0  0  0  0  0
   44.6820   35.0690   45.8680 N   0  0  0  0  0  0  0  0  0  0  0  0
   48.1918   35.9345   42.8024 H   0  0  0  0  0  0  0  0  0  0  0  0
   49.5199   35.7019   40.7100 H   0  0  0  0  0  0  0  0  0  0  0  0
   48.6231   34.2551   38.8431 H   0  0  0  0  0  0  0  0  0  0  0  0
   46.4203   33.0950   39.1483 H   0  0  0  0  0  0  0  0  0  0  0  0
   45.5202   31.4114   42.2045 H   0  0  0  0  0  0  0  0  0  0  0  0
   43.2447   30.5129   42.3363 H   0  0  0  0  0  0  0  0  0  0  0  0
   41.2542   35.3988   42.2719 H   0  0  0  0  0  0  0  0  0  0  0  0
   39.1689   36.4896   40.8902 H   0  0  0  0  0  0  0  0  0  0  0  0
   39.0743   35.2275   38.5114 H   0  0  0  0  0  0  0  0  0  0  0  0
   43.7488   36.8413   45.1603 H   0  0  0  0  0  0  0  0  0  0  0  0
   44.8463   36.6926   42.9183 H   0  0  0  0  0  0  0  0  0  0  0  0
   45.6943   33.3038   46.3833 H   0  0  0  0  0  0  0  0  0  0  0  0
  1 22  1  0
  2  1  2  0
  3  2  1  0
  4  5  1  0
  4  3  2  0
  5  6  2  0
  6  7  1  0
  6  1  1  0
  7  8  1  0
  8  9  2  0
 10 11  2  0
 10  9  1  0
 12 10  1  0
 13 12  1  0
 13  7  1  0
 14 13  2  0
 15 12  1  0
 15 16  2  0
 17 16  1  0
 18 17  2  0
 19 18  1  0
 19 15  1  0
 20 25  2  0
 21 20  1  0
 22 21  2  0
 22 23  1  0
 23 24  2  0
 24 25  1  0
  2 26  1  0
  3 27  1  0
  4 28  1  0
  5 29  1  0
  8 30  1  0
  9 31  1  0
 16 32  1  0
 17 33  1  0
 18 34  1  0
 20 35  1  0
 21 36  1  0
 24 37  1  0
M  END
>  <Score>  (1) 
-7.08173

$$$$
