
     RDKit          3D

 47 51  0  0  1  0  0  0  0  0999 V2000
   43.9160   34.3870   40.5030 C   0  0  2  0  0  0  0  0  0  0  0  0
   42.3840   34.5920   40.4920 C   0  0  0  0  0  0  0  0  0  0  0  0
   42.2480   35.0410   39.0350 C   0  0  0  0  0  0  0  0  0  0  0  0
   43.1500   34.1090   38.3250 C   0  0  0  0  0  0  0  0  0  0  0  0
   44.0610   33.4760   39.3840 C   0  0  1  0  0  0  0  0  0  0  0  0
   45.1770   34.8790   42.5670 C   0  0  0  0  0  0  0  0  0  0  0  0
   44.4200   33.9570   41.8090 C   0  0  0  0  0  0  0  0  0  0  0  0
   44.1960   32.6580   42.3050 C   0  0  0  0  0  0  0  0  0  0  0  0
   44.7250   32.3190   43.5210 N   0  0  0  0  0  0  0  0  0  0  0  0
   45.4590   33.2450   44.2260 C   0  0  0  0  0  0  0  0  0  0  0  0
   45.6820   34.4980   43.7660 N   0  0  0  0  0  0  0  0  0  0  0  0
   45.9890   32.8400   45.4870 N   0  0  0  0  0  0  0  0  0  0  0  0
   46.9220   31.8620   45.5200 C   0  0  0  0  0  0  0  0  0  0  0  0
   47.4630   31.4380   46.7210 C   0  0  0  0  0  0  0  0  0  0  0  0
   47.0720   31.9980   47.9330 C   0  0  0  0  0  0  0  0  0  0  0  0
   47.5650   31.6120   49.0180 O   0  0  0  0  0  0  0  0  0  0  0  0
   46.1420   32.9660   47.8360 N   0  0  0  0  0  0  0  0  0  0  0  0
   45.6040   33.3910   46.6750 C   0  0  0  0  0  0  0  0  0  0  0  0
   44.7360   34.2980   46.6100 O   0  0  0  0  0  0  0  0  0  0  0  0
   45.3790   33.2800   38.8360 N   0  0  0  0  0  0  0  0  0  0  0  0
   46.5200   33.2790   39.5570 C   0  0  0  0  0  0  0  0  0  0  0  0
   47.5740   33.0780   38.7650 N   0  0  0  0  0  0  0  0  0  0  0  0
   47.0780   32.9510   37.5190 C   0  0  0  0  0  0  0  0  0  0  0  0
   47.7640   32.7320   36.3460 C   0  0  0  0  0  0  0  0  0  0  0  0
   49.0230   32.6210   36.3250 O   0  0  0  0  0  0  0  0  0  0  0  0
   47.0430   32.6410   35.2180 N   0  0  0  0  0  0  0  0  0  0  0  0
   45.6740   32.7620   35.2300 C   0  0  0  0  0  0  0  0  0  0  0  0
   45.0270   32.6500   33.9650 N   0  0  0  0  0  0  0  0  0  0  0  0
   45.0290   32.9780   36.4100 N   0  0  0  0  0  0  0  0  0  0  0  0
   45.6990   33.0760   37.5540 C   0  0  0  0  0  0  0  0  0  0  0  0
   44.5383   35.2849   40.3743 H   0  0  0  0  0  0  0  0  0  0  0  0
   41.8361   33.6600   40.6950 H   0  0  0  0  0  0  0  0  0  0  0  0
   41.9802   35.2778   41.2514 H   0  0  0  0  0  0  0  0  0  0  0  0
   41.2113   34.9364   38.6823 H   0  0  0  0  0  0  0  0  0  0  0  0
   42.5012   36.0999   38.8780 H   0  0  0  0  0  0  0  0  0  0  0  0
   42.5639   33.3298   37.8158 H   0  0  0  0  0  0  0  0  0  0  0  0
   43.7411   34.6376   37.5627 H   0  0  0  0  0  0  0  0  0  0  0  0
   43.8127   32.4586   39.7205 H   0  0  0  0  0  0  0  0  0  0  0  0
   45.3547   35.8961   42.1876 H   0  0  0  0  0  0  0  0  0  0  0  0
   43.6077   31.9304   41.7267 H   0  0  0  0  0  0  0  0  0  0  0  0
   47.2552   31.3975   44.5802 H   0  0  0  0  0  0  0  0  0  0  0  0
   48.2197   30.6397   46.7173 H   0  0  0  0  0  0  0  0  0  0  0  0
   45.8197   33.4119   48.7068 H   0  0  0  0  0  0  0  0  0  0  0  0
   46.5731   33.4238   40.6461 H   0  0  0  0  0  0  0  0  0  0  0  0
   47.5262   32.4768   34.3233 H   0  0  0  0  0  0  0  0  0  0  0  0
   44.0021   32.7310   33.9018 H   0  0  0  0  0  0  0  0  0  0  0  0
   45.5843   32.4881   33.1141 H   0  0  0  0  0  0  0  0  0  0  0  0
  1  7  1  0
  2  1  1  0
  3  2  1  0
  4  3  1  0
  4  5  1  0
  5  1  1  0
  6 11  2  0
  7  8  2  0
  7  6  1  0
  8  9  1  0
  9 10  2  0
 10 12  1  0
 11 10  1  0
 12 13  1  0
 12 18  1  0
 13 14  2  0
 14 15  1  0
 15 16  2  0
 17 15  1  0
 18 17  1  0
 19 18  2  0
 20  5  1  0
 20 21  1  0
 22 21  2  0
 23 30  2  0
 23 22  1  0
 24 23  1  0
 25 24  2  0
 26 27  1  0
 26 24  1  0
 27 29  2  0
 28 27  1  0
 29 30  1  0
 30 20  1  0
  1 31  1  6
  2 32  1  0
  2 33  1  0
  3 34  1  0
  3 35  1  0
  4 36  1  0
  4 37  1  0
  5 38  1  1
  6 39  1  0
  8 40  1  0
 13 41  1  0
 14 42  1  0
 17 43  1  0
 21 44  1  0
 26 45  1  0
 28 46  1  0
 28 47  1  0
M  END
>  <Score>  (1) 
-7.66708

$$$$
