
     RDKit          3D

 39 43  0  0  1  0  0  0  0  0999 V2000
   44.4770   36.1680   44.4030 C   0  0  0  0  0  0  0  0  0  0  0  0
   45.2610   36.0140   43.2280 C   0  0  0  0  0  0  0  0  0  0  0  0
   46.1620   34.9430   43.1730 C   0  0  1  0  0  0  0  0  0  0  0  0
   46.2030   34.1490   44.2460 N   0  0  0  0  0  0  0  0  0  0  0  0
   45.4790   34.2820   45.3470 C   0  0  0  0  0  0  0  0  0  0  0  0
   44.6040   35.2990   45.4370 N   0  0  0  0  0  0  0  0  0  0  0  0
   45.7650   33.2590   46.3120 N   0  0  0  0  0  0  0  0  0  0  0  0
   45.1890   32.9480   47.4850 C   0  0  0  0  0  0  0  0  0  0  0  0
   45.8530   31.8320   47.9640 C   0  0  0  0  0  0  0  0  0  0  0  0
   46.7910   31.5340   47.0530 N   0  0  0  0  0  0  0  0  0  0  0  0
   46.7540   32.3890   46.0460 C   0  0  0  0  0  0  0  0  0  0  0  0
   47.7210   32.1630   44.9990 N   0  0  0  0  0  0  0  0  0  0  0  0
   47.6690   32.7230   43.6780 C   0  0  1  0  0  0  0  0  0  0  0  0
   46.5220   32.8570   43.1220 N   0  0  0  0  0  0  0  0  0  0  0  0
   48.8420   33.1380   42.9380 N   0  0  0  0  0  0  0  0  0  0  0  0
   46.9260   34.8320   42.0050 N   0  0  0  0  0  0  0  0  0  0  0  0
   48.1730   35.4060   41.9030 C   0  0  0  0  0  0  0  0  0  0  0  0
   48.6630   35.1440   40.6740 N   0  0  0  0  0  0  0  0  0  0  0  0
   47.7490   34.4150   39.9970 C   0  0  0  0  0  0  0  0  0  0  0  0
   47.7570   33.8930   38.7230 C   0  0  0  0  0  0  0  0  0  0  0  0
   46.6630   33.1930   38.3520 N   0  0  0  0  0  0  0  0  0  0  0  0
   45.6110   33.0120   39.1820 C   0  0  0  0  0  0  0  0  0  0  0  0
   45.6260   33.5390   40.4360 N   0  0  0  0  0  0  0  0  0  0  0  0
   46.6860   34.2370   40.8470 C   0  0  0  0  0  0  0  0  0  0  0  0
   48.8690   34.1000   37.8460 N   0  0  0  0  0  0  0  0  0  0  0  0
   43.7605   36.9995   44.4749 H   0  0  0  0  0  0  0  0  0  0  0  0
   45.1632   36.7153   42.3862 H   0  0  0  0  0  0  0  0  0  0  0  0
   46.9414   35.5756   43.6227 H   0  0  0  0  0  0  0  0  0  0  0  0
   44.3543   33.4760   47.9693 H   0  0  0  0  0  0  0  0  0  0  0  0
   45.6517   31.2967   48.9037 H   0  0  0  0  0  0  0  0  0  0  0  0
   48.5169   31.5470   45.2182 H   0  0  0  0  0  0  0  0  0  0  0  0
   47.7540   31.7145   43.2471 H   0  0  0  0  0  0  0  0  0  0  0  0
   46.5559   33.1469   42.1342 H   0  0  0  0  0  0  0  0  0  0  0  0
   49.5882   33.4020   43.5971 H   0  0  0  0  0  0  0  0  0  0  0  0
   49.1667   32.3608   42.3452 H   0  0  0  0  0  0  0  0  0  0  0  0
   48.6832   35.9807   42.6901 H   0  0  0  0  0  0  0  0  0  0  0  0
   44.7383   32.4355   38.8413 H   0  0  0  0  0  0  0  0  0  0  0  0
   48.8570   33.7016   36.8962 H   0  0  0  0  0  0  0  0  0  0  0  0
   49.6813   34.6473   38.1646 H   0  0  0  0  0  0  0  0  0  0  0  0
  1  6  1  0
  2  1  2  0
  3 16  1  0
  3  2  1  0
  3  4  1  0
  4  5  1  0
  5  6  2  0
  5  7  1  0
  7  8  1  0
  8  9  2  0
 10  9  1  0
 11  7  1  0
 11 10  2  0
 12 11  1  0
 13 15  1  0
 13 12  1  0
 14 13  1  0
 14  4  1  0
 17 16  1  0
 18 17  2  0
 19 18  1  0
 19 24  2  0
 20 19  1  0
 21 20  2  0
 21 22  1  0
 22 23  2  0
 23 24  1  0
 24 16  1  0
 25 20  1  0
  1 26  1  0
  2 27  1  0
  3 28  1  1
  8 29  1  0
  9 30  1  0
 12 31  1  0
 13 32  1  6
 14 33  1  0
 15 34  1  0
 15 35  1  0
 17 36  1  0
 22 37  1  0
 25 38  1  0
 25 39  1  0
M  END
>  <Score>  (1) 
-7.23727

$$$$
