
     RDKit          3D

 43 46  0  0  0  0  0  0  0  0999 V2000
   46.9120   34.7200   41.9000 C   0  0  0  0  0  0  0  0  0  0  0  0
   48.1960   35.2040   41.6710 C   0  0  0  0  0  0  0  0  0  0  0  0
   48.4490   34.8090   40.3580 C   0  0  0  0  0  0  0  0  0  0  0  0
   47.3410   34.1310   39.8850 C   0  0  0  0  0  0  0  0  0  0  0  0
   46.4330   34.1040   40.8600 O   0  0  0  0  0  0  0  0  0  0  0  0
   44.5760   35.9990   44.4920 C   0  0  0  0  0  0  0  0  0  0  0  0
   45.2830   35.9200   43.2610 C   0  0  0  0  0  0  0  0  0  0  0  0
   46.1520   34.8620   43.1420 C   0  0  0  0  0  0  0  0  0  0  0  0
   46.2890   33.9750   44.1650 N   0  0  0  0  0  0  0  0  0  0  0  0
   45.5820   34.0980   45.3280 C   0  0  0  0  0  0  0  0  0  0  0  0
   44.7290   35.1120   45.4850 N   0  0  0  0  0  0  0  0  0  0  0  0
   45.7750   33.1350   46.3570 N   0  0  0  0  0  0  0  0  0  0  0  0
   45.0270   33.2610   47.5930 C   0  0  0  0  0  0  0  0  0  0  0  0
   45.5010   32.1370   48.4860 C   0  0  0  0  0  0  0  0  0  0  0  0
   46.8840   32.0650   48.5940 O   0  0  0  0  0  0  0  0  0  0  0  0
   47.5360   31.8110   47.4150 C   0  0  0  0  0  0  0  0  0  0  0  0
   46.7060   32.0390   46.1730 C   0  0  0  0  0  0  0  0  0  0  0  0
   47.1800   33.5620   38.6010 N   0  0  0  0  0  0  0  0  0  0  0  0
   46.3290   32.5310   38.4500 C   0  0  0  0  0  0  0  0  0  0  0  0
   46.1410   31.9440   37.2130 C   0  0  0  0  0  0  0  0  0  0  0  0
   46.8490   32.4420   36.1260 C   0  0  0  0  0  0  0  0  0  0  0  0
   46.6620   31.8930   35.0150 O   0  0  0  0  0  0  0  0  0  0  0  0
   47.6920   33.4810   36.3360 N   0  0  0  0  0  0  0  0  0  0  0  0
   47.8520   34.0320   37.5670 C   0  0  0  0  0  0  0  0  0  0  0  0
   48.6520   34.9940   37.6800 O   0  0  0  0  0  0  0  0  0  0  0  0
   45.1800   30.8120   37.1420 C   0  0  0  0  0  0  0  0  0  0  0  0
   48.8507   35.7613   42.3571 H   0  0  0  0  0  0  0  0  0  0  0  0
   49.3733   35.0038   39.7942 H   0  0  0  0  0  0  0  0  0  0  0  0
   43.8687   36.8289   44.6365 H   0  0  0  0  0  0  0  0  0  0  0  0
   45.1436   36.6573   42.4567 H   0  0  0  0  0  0  0  0  0  0  0  0
   45.2293   34.2342   48.0642 H   0  0  0  0  0  0  0  0  0  0  0  0
   43.9431   33.2029   47.4146 H   0  0  0  0  0  0  0  0  0  0  0  0
   45.0801   32.2887   49.4909 H   0  0  0  0  0  0  0  0  0  0  0  0
   45.1610   31.1950   48.0311 H   0  0  0  0  0  0  0  0  0  0  0  0
   48.4179   32.4665   47.3630 H   0  0  0  0  0  0  0  0  0  0  0  0
   47.7921   30.7413   47.4256 H   0  0  0  0  0  0  0  0  0  0  0  0
   46.1410   31.1229   45.9461 H   0  0  0  0  0  0  0  0  0  0  0  0
   47.3830   32.2932   45.3441 H   0  0  0  0  0  0  0  0  0  0  0  0
   45.7762   32.1506   39.3216 H   0  0  0  0  0  0  0  0  0  0  0  0
   48.2253   33.8630   35.5419 H   0  0  0  0  0  0  0  0  0  0  0  0
   44.9109   30.4950   38.1604 H   0  0  0  0  0  0  0  0  0  0  0  0
   44.2743   31.1329   36.6065 H   0  0  0  0  0  0  0  0  0  0  0  0
   45.6437   29.9704   36.6065 H   0  0  0  0  0  0  0  0  0  0  0  0
  1  8  1  0
  2  1  2  0
  3  2  1  0
  4  3  2  0
  4  5  1  0
  5  1  1  0
  6 11  2  0
  7  6  1  0
  8  7  2  0
  8  9  1  0
  9 10  2  0
 10 11  1  0
 10 12  1  0
 12 13  1  0
 13 14  1  0
 14 15  1  0
 16 15  1  0
 17 12  1  0
 17 16  1  0
 18  4  1  0
 19 18  1  0
 20 19  2  0
 21 23  1  0
 21 20  1  0
 22 21  2  0
 23 24  1  0
 24 25  2  0
 24 18  1  0
 26 20  1  0
  2 27  1  0
  3 28  1  0
  6 29  1  0
  7 30  1  0
 13 31  1  0
 13 32  1  0
 14 33  1  0
 14 34  1  0
 16 35  1  0
 16 36  1  0
 17 37  1  0
 17 38  1  0
 19 39  1  0
 23 40  1  0
 26 41  1  0
 26 42  1  0
 26 43  1  0
M  END
>  <Score>  (1) 
-7.61046

$$$$
