
     RDKit          3D

 36 40  0  0  0  0  0  0  0  0999 V2000
   44.4560   36.0430   44.8550 C   0  0  0  0  0  0  0  0  0  0  0  0
   45.1020   36.0030   43.6120 C   0  0  0  0  0  0  0  0  0  0  0  0
   45.9490   34.9300   43.3560 C   0  0  0  0  0  0  0  0  0  0  0  0
   46.1200   33.9780   44.3010 N   0  0  0  0  0  0  0  0  0  0  0  0
   45.4800   34.0520   45.4870 C   0  0  0  0  0  0  0  0  0  0  0  0
   44.6510   35.0720   45.7770 N   0  0  0  0  0  0  0  0  0  0  0  0
   45.6800   33.0370   46.4580 N   0  0  0  0  0  0  0  0  0  0  0  0
   45.1980   32.9200   47.6860 C   0  0  0  0  0  0  0  0  0  0  0  0
   45.6370   31.7830   48.2980 N   0  0  0  0  0  0  0  0  0  0  0  0
   46.4450   31.1320   47.4160 C   0  0  0  0  0  0  0  0  0  0  0  0
   47.1670   29.9540   47.4570 C   0  0  0  0  0  0  0  0  0  0  0  0
   47.9020   29.5640   46.3740 N   0  0  0  0  0  0  0  0  0  0  0  0
   47.8810   30.3760   45.2880 C   0  0  0  0  0  0  0  0  0  0  0  0
   47.1740   31.5420   45.2280 N   0  0  0  0  0  0  0  0  0  0  0  0
   46.4370   31.9420   46.3050 C   0  0  0  0  0  0  0  0  0  0  0  0
   46.6860   34.7580   42.1090 C   0  0  0  0  0  0  0  0  0  0  0  0
   47.9430   35.2830   41.8960 C   0  0  0  0  0  0  0  0  0  0  0  0
   48.6560   35.1330   40.7250 C   0  0  0  0  0  0  0  0  0  0  0  0
   48.0780   34.4240   39.7290 N   0  0  0  0  0  0  0  0  0  0  0  0
   46.8620   33.9080   39.9190 C   0  0  0  0  0  0  0  0  0  0  0  0
   46.1710   34.0540   41.0540 N   0  0  0  0  0  0  0  0  0  0  0  0
   46.3240   33.1700   38.8390 N   0  0  0  0  0  0  0  0  0  0  0  0
   45.3580   32.2600   38.7280 N   0  0  0  0  0  0  0  0  0  0  0  0
   45.2620   31.8610   37.4430 C   0  0  0  0  0  0  0  0  0  0  0  0
   46.2140   32.5540   36.7150 C   0  0  0  0  0  0  0  0  0  0  0  0
   46.8610   33.3630   37.6090 C   0  0  0  0  0  0  0  0  0  0  0  0
   43.7785   36.8785   45.0852 H   0  0  0  0  0  0  0  0  0  0  0  0
   44.9444   36.7938   42.8638 H   0  0  0  0  0  0  0  0  0  0  0  0
   44.5245   33.6519   48.1559 H   0  0  0  0  0  0  0  0  0  0  0  0
   47.1496   29.3301   48.3628 H   0  0  0  0  0  0  0  0  0  0  0  0
   48.4667   30.0782   44.4058 H   0  0  0  0  0  0  0  0  0  0  0  0
   48.4064   35.8577   42.7115 H   0  0  0  0  0  0  0  0  0  0  0  0
   49.6569   35.5734   40.6057 H   0  0  0  0  0  0  0  0  0  0  0  0
   44.5545   31.1186   37.0452 H   0  0  0  0  0  0  0  0  0  0  0  0
   46.4106   32.4710   35.6359 H   0  0  0  0  0  0  0  0  0  0  0  0
   47.6813   34.0556   37.3694 H   0  0  0  0  0  0  0  0  0  0  0  0
  1  6  2  0
  2  1  1  0
  3  2  2  0
  3  4  1  0
  4  5  2  0
  5  6  1  0
  5  7  1  0
  7  8  1  0
  8  9  2  0
 10 11  2  0
 10  9  1  0
 12 11  1  0
 13 12  2  0
 14 13  1  0
 14 15  2  0
 15  7  1  0
 15 10  1  0
 16  3  1  0
 17 16  2  0
 18 17  1  0
 19 20  1  0
 19 18  2  0
 20 21  2  0
 21 16  1  0
 22 20  1  0
 23 22  1  0
 24 23  2  0
 25 24  1  0
 25 26  2  0
 26 22  1  0
  1 27  1  0
  2 28  1  0
  8 29  1  0
 11 30  1  0
 13 31  1  0
 17 32  1  0
 18 33  1  0
 24 34  1  0
 25 35  1  0
 26 36  1  0
M  END
>  <Score>  (1) 
-7.20989

$$$$
