
     RDKit          3D

 56 60  0  0  1  0  0  0  0  0999 V2000
   46.0990   35.0490   41.9640 O   0  0  0  0  0  0  0  0  0  0  0  0
   44.6300   35.3970   45.3690 C   0  0  0  0  0  0  0  0  0  0  0  0
   44.9320   35.7270   44.0470 C   0  0  0  0  0  0  0  0  0  0  0  0
   45.7120   34.8690   43.2810 C   0  0  0  0  0  0  0  0  0  0  0  0
   46.1390   33.7290   43.9040 N   0  0  0  0  0  0  0  0  0  0  0  0
   45.8370   33.4260   45.1820 C   0  0  0  0  0  0  0  0  0  0  0  0
   45.0850   34.2650   45.9020 N   0  0  0  0  0  0  0  0  0  0  0  0
   46.3100   32.2240   45.7730 N   0  0  0  0  0  0  0  0  0  0  0  0
   47.3730   31.4610   45.2140 C   0  0  0  0  0  0  0  0  0  0  0  0
   46.9180   30.0190   45.2050 C   0  0  0  0  0  0  0  0  0  0  0  0
   46.6550   29.5410   46.4730 O   0  0  0  0  0  0  0  0  0  0  0  0
   46.6070   30.5280   47.4290 C   0  0  0  0  0  0  0  0  0  0  0  0
   45.7410   31.7000   46.9790 C   0  0  1  0  0  0  0  0  0  0  0  0
   45.4820   32.6620   48.0660 C   0  0  0  0  0  0  0  0  0  0  0  0
   45.4820   34.2770   40.9310 C   0  0  0  0  0  0  0  0  0  0  0  0
   46.5160   33.5980   40.0890 C   0  0  0  0  0  0  0  0  0  0  0  0
   46.1310   33.7550   38.7270 N   0  0  0  0  0  0  0  0  0  0  0  0
   47.0780   33.5050   37.6750 C   0  0  0  0  0  0  0  0  0  0  0  0
   48.3570   33.9710   37.4570 C   0  0  0  0  0  0  0  0  0  0  0  0
   48.7340   33.3600   36.2670 C   0  0  0  0  0  0  0  0  0  0  0  0
   47.7210   32.5890   35.8350 N   0  0  0  0  0  0  0  0  0  0  0  0
   46.7100   32.6710   36.6850 N   0  0  0  0  0  0  0  0  0  0  0  0
   47.6910   31.7830   34.6430 C   0  0  0  0  0  0  0  0  0  0  0  0
   47.0850   30.5450   34.5660 C   0  0  0  0  0  0  0  0  0  0  0  0
   47.2770   30.1340   33.3070 N   0  0  0  0  0  0  0  0  0  0  0  0
   47.9760   31.0550   32.5920 C   0  0  0  0  0  0  0  0  0  0  0  0
   48.4330   31.1320   31.2850 C   0  0  0  0  0  0  0  0  0  0  0  0
   49.1370   32.2300   30.8330 C   0  0  0  0  0  0  0  0  0  0  0  0
   49.4100   33.3000   31.6890 C   0  0  0  0  0  0  0  0  0  0  0  0
   48.9650   33.2600   33.0150 C   0  0  0  0  0  0  0  0  0  0  0  0
   48.2660   32.1420   33.4210 C   0  0  0  0  0  0  0  0  0  0  0  0
   44.0121   36.0765   45.9744 H   0  0  0  0  0  0  0  0  0  0  0  0
   44.5536   36.6640   43.6124 H   0  0  0  0  0  0  0  0  0  0  0  0
   47.5826   31.7984   44.1882 H   0  0  0  0  0  0  0  0  0  0  0  0
   48.2956   31.5801   45.8011 H   0  0  0  0  0  0  0  0  0  0  0  0
   46.0016   29.9418   44.6015 H   0  0  0  0  0  0  0  0  0  0  0  0
   47.7327   29.4135   44.7812 H   0  0  0  0  0  0  0  0  0  0  0  0
   46.1874   30.1084   48.3552 H   0  0  0  0  0  0  0  0  0  0  0  0
   47.6295   30.8980   47.5949 H   0  0  0  0  0  0  0  0  0  0  0  0
   44.7190   31.3767   46.7323 H   0  0  0  0  0  0  0  0  0  0  0  0
   45.6164   32.1630   49.0370 H   0  0  0  0  0  0  0  0  0  0  0  0
   46.1855   33.5039   47.9859 H   0  0  0  0  0  0  0  0  0  0  0  0
   44.4509   33.0369   47.9859 H   0  0  0  0  0  0  0  0  0  0  0  0
   44.8320   33.5163   41.3880 H   0  0  0  0  0  0  0  0  0  0  0  0
   44.8912   34.9496   40.2917 H   0  0  0  0  0  0  0  0  0  0  0  0
   47.4997   34.0608   40.2567 H   0  0  0  0  0  0  0  0  0  0  0  0
   46.5886   32.5319   40.3502 H   0  0  0  0  0  0  0  0  0  0  0  0
   45.1713   34.0485   38.4951 H   0  0  0  0  0  0  0  0  0  0  0  0
   48.9421   34.6641   38.0792 H   0  0  0  0  0  0  0  0  0  0  0  0
   49.7027   33.4866   35.7614 H   0  0  0  0  0  0  0  0  0  0  0  0
   46.5566   30.0101   35.3689 H   0  0  0  0  0  0  0  0  0  0  0  0
   46.9394   29.2373   32.9292 H   0  0  0  0  0  0  0  0  0  0  0  0
   48.2302   30.3006   30.5939 H   0  0  0  0  0  0  0  0  0  0  0  0
   49.4859   32.2628   29.7903 H   0  0  0  0  0  0  0  0  0  0  0  0
   49.9728   34.1708   31.3218 H   0  0  0  0  0  0  0  0  0  0  0  0
   49.1653   34.0899   33.7086 H   0  0  0  0  0  0  0  0  0  0  0  0
  1  4  1  0
  2  7  2  0
  3  2  1  0
  4  5  1  0
  4  3  2  0
  5  6  2  0
  6  8  1  0
  6  7  1  0
  8 13  1  0
  9  8  1  0
 10  9  1  0
 10 11  1  0
 11 12  1  0
 13 12  1  0
 13 14  1  0
 15  1  1  0
 16 15  1  0
 17 16  1  0
 18 17  1  0
 19 18  1  0
 20 19  2  0
 21 20  1  0
 21 22  1  0
 22 18  2  0
 23 21  1  0
 24 23  2  0
 25 24  1  0
 26 25  1  0
 26 31  2  0
 27 26  1  0
 28 27  2  0
 28 29  1  0
 29 30  2  0
 30 31  1  0
 31 23  1  0
  2 32  1  0
  3 33  1  0
  9 34  1  0
  9 35  1  0
 10 36  1  0
 10 37  1  0
 12 38  1  0
 12 39  1  0
 13 40  1  6
 14 41  1  0
 14 42  1  0
 14 43  1  0
 15 44  1  0
 15 45  1  0
 16 46  1  0
 16 47  1  0
 17 48  1  0
 19 49  1  0
 20 50  1  0
 24 51  1  0
 25 52  1  0
 27 53  1  0
 28 54  1  0
 29 55  1  0
 30 56  1  0
M  END
>  <Score>  (1) 
-7.16677

$$$$
