
     RDKit          3D

 58 62  0  0  1  0  0  0  0  0999 V2000
   46.1350   35.0370   41.8810 O   0  0  0  0  0  0  0  0  0  0  0  0
   44.6380   35.4360   45.2690 C   0  0  0  0  0  0  0  0  0  0  0  0
   44.9520   35.7460   43.9460 C   0  0  0  0  0  0  0  0  0  0  0  0
   45.7360   34.8730   43.1980 C   0  0  0  0  0  0  0  0  0  0  0  0
   46.1470   33.7420   43.8430 N   0  0  0  0  0  0  0  0  0  0  0  0
   45.8350   33.4600   45.1150 C   0  0  0  0  0  0  0  0  0  0  0  0
   45.0790   34.3120   45.8200 N   0  0  0  0  0  0  0  0  0  0  0  0
   46.2950   32.2630   45.7290 N   0  0  0  0  0  0  0  0  0  0  0  0
   47.3660   31.4930   45.1970 C   0  0  0  0  0  0  0  0  0  0  0  0
   46.9180   30.0500   45.2000 C   0  0  0  0  0  0  0  0  0  0  0  0
   46.6270   29.5810   46.4620 O   0  0  0  0  0  0  0  0  0  0  0  0
   46.5600   30.5770   47.4100 C   0  0  0  0  0  0  0  0  0  0  0  0
   45.7050   31.7550   46.9300 C   0  0  1  0  0  0  0  0  0  0  0  0
   45.4520   32.7290   48.0080 C   0  0  0  0  0  0  0  0  0  0  0  0
   45.5890   34.2070   40.8530 C   0  0  0  0  0  0  0  0  0  0  0  0
   46.6660   33.6490   39.9910 C   0  0  0  0  0  0  0  0  0  0  0  0
   46.2420   33.7800   38.6350 N   0  0  0  0  0  0  0  0  0  0  0  0
   47.1390   33.4390   37.5660 C   0  0  0  0  0  0  0  0  0  0  0  0
   48.4180   33.8310   37.2710 C   0  0  0  0  0  0  0  0  0  0  0  0
   48.7270   33.1430   36.1000 C   0  0  0  0  0  0  0  0  0  0  0  0
   47.6690   32.3980   35.7510 N   0  0  0  0  0  0  0  0  0  0  0  0
   46.6980   32.5700   36.6350 N   0  0  0  0  0  0  0  0  0  0  0  0
   47.5750   31.5440   34.6130 C   0  0  0  0  0  0  0  0  0  0  0  0
   46.9090   30.3160   34.6630 C   0  0  0  0  0  0  0  0  0  0  0  0
   46.8400   29.5140   33.5310 C   0  0  0  0  0  0  0  0  0  0  0  0
   47.4350   29.9380   32.3510 C   0  0  0  0  0  0  0  0  0  0  0  0
   48.1020   31.1550   32.2800 C   0  0  0  0  0  0  0  0  0  0  0  0
   48.6810   31.5370   31.0800 C   0  0  0  0  0  0  0  0  0  0  0  0
   49.3340   32.7740   31.0870 C   0  0  0  0  0  0  0  0  0  0  0  0
   49.4310   33.6010   32.1710 C   0  0  0  0  0  0  0  0  0  0  0  0
   48.8240   33.1350   33.3180 C   0  0  0  0  0  0  0  0  0  0  0  0
   48.1590   31.9450   33.4290 C   0  0  0  0  0  0  0  0  0  0  0  0
   44.0203   36.1281   45.8601 H   0  0  0  0  0  0  0  0  0  0  0  0
   44.5809   36.6781   43.4950 H   0  0  0  0  0  0  0  0  0  0  0  0
   48.2631   31.6112   45.8225 H   0  0  0  0  0  0  0  0  0  0  0  0
   47.6182   31.8232   44.1785 H   0  0  0  0  0  0  0  0  0  0  0  0
   46.0163   29.9613   44.5762 H   0  0  0  0  0  0  0  0  0  0  0  0
   47.7491   29.4459   44.8072 H   0  0  0  0  0  0  0  0  0  0  0  0
   46.1176   30.1658   48.3293 H   0  0  0  0  0  0  0  0  0  0  0  0
   47.5799   30.9448   47.5958 H   0  0  0  0  0  0  0  0  0  0  0  0
   44.6843   31.4395   46.6679 H   0  0  0  0  0  0  0  0  0  0  0  0
   45.5797   32.2374   48.9837 H   0  0  0  0  0  0  0  0  0  0  0  0
   46.1631   33.5639   47.9222 H   0  0  0  0  0  0  0  0  0  0  0  0
   44.4245   33.1122   47.9222 H   0  0  0  0  0  0  0  0  0  0  0  0
   45.0335   33.3784   41.3166 H   0  0  0  0  0  0  0  0  0  0  0  0
   44.9201   34.8169   40.2280 H   0  0  0  0  0  0  0  0  0  0  0  0
   47.6001   34.2082   40.1480 H   0  0  0  0  0  0  0  0  0  0  0  0
   46.8519   32.5934   40.2382 H   0  0  0  0  0  0  0  0  0  0  0  0
   45.2929   34.1190   38.4226 H   0  0  0  0  0  0  0  0  0  0  0  0
   49.0560   34.5302   37.8315 H   0  0  0  0  0  0  0  0  0  0  0  0
   49.6797   33.2013   35.5533 H   0  0  0  0  0  0  0  0  0  0  0  0
   46.4387   29.9842   35.6004 H   0  0  0  0  0  0  0  0  0  0  0  0
   46.3163   28.5474   33.5696 H   0  0  0  0  0  0  0  0  0  0  0  0
   47.3776   29.2999   31.4568 H   0  0  0  0  0  0  0  0  0  0  0  0
   48.6302   30.9074   30.1794 H   0  0  0  0  0  0  0  0  0  0  0  0
   49.8047   33.1061   30.1499 H   0  0  0  0  0  0  0  0  0  0  0  0
   49.9549   34.5674   32.1312 H   0  0  0  0  0  0  0  0  0  0  0  0
   48.8789   33.7703   34.2143 H   0  0  0  0  0  0  0  0  0  0  0  0
  1  4  1  0
  2  7  2  0
  3  2  1  0
  4  5  1  0
  4  3  2  0
  5  6  2  0
  6  8  1  0
  6  7  1  0
  8 13  1  0
  9 10  1  0
  9  8  1  0
 10 11  1  0
 11 12  1  0
 13 12  1  0
 13 14  1  0
 15  1  1  0
 16 15  1  0
 17 16  1  0
 18 17  1  0
 19 18  1  0
 20 19  2  0
 21 20  1  0
 21 22  1  0
 22 18  2  0
 23 24  2  0
 23 21  1  0
 25 24  1  0
 26 25  2  0
 27 26  1  0
 27 32  2  0
 28 29  2  0
 28 27  1  0
 29 30  1  0
 30 31  2  0
 31 32  1  0
 32 23  1  0
  2 33  1  0
  3 34  1  0
  9 35  1  0
  9 36  1  0
 10 37  1  0
 10 38  1  0
 12 39  1  0
 12 40  1  0
 13 41  1  6
 14 42  1  0
 14 43  1  0
 14 44  1  0
 15 45  1  0
 15 46  1  0
 16 47  1  0
 16 48  1  0
 17 49  1  0
 19 50  1  0
 20 51  1  0
 24 52  1  0
 25 53  1  0
 26 54  1  0
 28 55  1  0
 29 56  1  0
 30 57  1  0
 31 58  1  0
M  END
>  <Score>  (1) 
-7.31633

$$$$
