
     RDKit          3D

 40 43  0  0  0  0  0  0  0  0999 V2000
   46.4200   34.7060   42.0790 C   0  0  0  0  0  0  0  0  0  0  0  0
   47.7290   35.0620   41.9380 C   0  0  0  0  0  0  0  0  0  0  0  0
   48.4320   34.8180   40.7560 C   0  0  0  0  0  0  0  0  0  0  0  0
   47.7870   34.1930   39.6790 C   0  0  0  0  0  0  0  0  0  0  0  0
   46.4750   33.8430   39.8320 C   0  0  0  0  0  0  0  0  0  0  0  0
   45.8050   34.0990   41.0200 C   0  0  0  0  0  0  0  0  0  0  0  0
   44.4420   33.7170   41.1330 N   0  0  0  0  0  0  0  0  0  0  0  0
   43.6230   34.6460   40.5700 C   0  0  0  0  0  0  0  0  0  0  0  0
   42.2360   34.4790   40.5660 C   0  0  0  0  0  0  0  0  0  0  0  0
   41.7410   33.3300   41.1570 C   0  0  0  0  0  0  0  0  0  0  0  0
   40.4970   33.1100   41.1910 O   0  0  0  0  0  0  0  0  0  0  0  0
   42.5740   32.4360   41.7010 N   0  0  0  0  0  0  0  0  0  0  0  0
   43.9100   32.6100   41.6980 C   0  0  0  0  0  0  0  0  0  0  0  0
   44.7670   31.8380   42.1770 O   0  0  0  0  0  0  0  0  0  0  0  0
   41.3120   35.4680   39.9650 C   0  0  0  0  0  0  0  0  0  0  0  0
   44.4150   36.2970   44.8480 C   0  0  0  0  0  0  0  0  0  0  0  0
   44.9940   36.1310   43.5860 C   0  0  0  0  0  0  0  0  0  0  0  0
   45.7670   34.9980   43.3420 C   0  0  0  0  0  0  0  0  0  0  0  0
   45.9100   34.1290   44.3470 N   0  0  0  0  0  0  0  0  0  0  0  0
   45.3420   34.3050   45.5650 C   0  0  0  0  0  0  0  0  0  0  0  0
   44.5990   35.3860   45.8110 N   0  0  0  0  0  0  0  0  0  0  0  0
   45.5740   33.2870   46.5730 C   0  0  0  0  0  0  0  0  0  0  0  0
   46.5160   32.2610   46.4790 C   0  0  0  0  0  0  0  0  0  0  0  0
   46.3670   31.5890   47.6190 N   0  0  0  0  0  0  0  0  0  0  0  0
   45.4210   32.1120   48.3970 C   0  0  0  0  0  0  0  0  0  0  0  0
   44.9200   33.1780   47.7430 N   0  0  0  0  0  0  0  0  0  0  0  0
   48.2441   35.5537   42.7764 H   0  0  0  0  0  0  0  0  0  0  0  0
   49.4877   35.1150   40.6702 H   0  0  0  0  0  0  0  0  0  0  0  0
   48.3213   33.9905   38.7390 H   0  0  0  0  0  0  0  0  0  0  0  0
   45.9434   33.3523   39.0033 H   0  0  0  0  0  0  0  0  0  0  0  0
   44.0605   35.5443   40.1099 H   0  0  0  0  0  0  0  0  0  0  0  0
   42.1820   31.5884   42.1356 H   0  0  0  0  0  0  0  0  0  0  0  0
   40.7959   36.0204   40.7640 H   0  0  0  0  0  0  0  0  0  0  0  0
   41.8832   36.1723   39.3423 H   0  0  0  0  0  0  0  0  0  0  0  0
   40.5706   34.9459   39.3423 H   0  0  0  0  0  0  0  0  0  0  0  0
   43.8011   37.1868   45.0516 H   0  0  0  0  0  0  0  0  0  0  0  0
   44.8415   36.8834   42.7982 H   0  0  0  0  0  0  0  0  0  0  0  0
   47.2168   32.0558   45.6564 H   0  0  0  0  0  0  0  0  0  0  0  0
   45.1083   31.7438   49.3852 H   0  0  0  0  0  0  0  0  0  0  0  0
   44.1699   33.7987   48.0791 H   0  0  0  0  0  0  0  0  0  0  0  0
  1 18  1  0
  2  1  2  0
  3  2  1  0
  4  5  1  0
  4  3  2  0
  5  6  2  0
  6  7  1  0
  6  1  1  0
  7 13  1  0
  8  7  1  0
  9  8  2  0
  9 10  1  0
 10 11  2  0
 10 12  1  0
 13 12  1  0
 13 14  2  0
 15  9  1  0
 16 21  2  0
 17 16  1  0
 18 17  2  0
 18 19  1  0
 19 20  2  0
 20 21  1  0
 20 22  1  0
 22 26  1  0
 23 22  2  0
 23 24  1  0
 24 25  2  0
 26 25  1  0
  2 27  1  0
  3 28  1  0
  4 29  1  0
  5 30  1  0
  8 31  1  0
 12 32  1  0
 15 33  1  0
 15 34  1  0
 15 35  1  0
 16 36  1  0
 17 37  1  0
 23 38  1  0
 25 39  1  0
 26 40  1  0
M  END
>  <Score>  (1) 
-7.83264

$$$$
