
     RDKit          3D

 54 59  0  0  1  0  0  0  0  0999 V2000
   46.6470   32.4820   44.9940 C   0  0  0  0  0  0  0  0  0  0  0  0
   47.5430   31.8660   44.3150 N   0  0  0  0  0  0  0  0  0  0  0  0
   47.8450   30.7500   44.9160 O   0  0  0  0  0  0  0  0  0  0  0  0
   47.1770   30.5780   46.0010 C   0  0  0  0  0  0  0  0  0  0  0  0
   46.4170   31.6210   46.1020 N   0  0  0  0  0  0  0  0  0  0  0  0
   45.4180   35.6590   43.3080 C   0  0  0  0  0  0  0  0  0  0  0  0
   46.1800   34.4580   43.3980 C   0  0  0  0  0  0  0  0  0  0  0  0
   46.0790   33.7350   44.6220 C   0  0  0  0  0  0  0  0  0  0  0  0
   45.3190   34.1750   45.6030 N   0  0  0  0  0  0  0  0  0  0  0  0
   44.6080   35.3330   45.4720 C   0  0  0  0  0  0  0  0  0  0  0  0
   44.6650   36.0670   44.3160 N   0  0  0  0  0  0  0  0  0  0  0  0
   47.1220   34.1460   42.3050 C   0  0  2  0  0  0  0  0  0  0  0  0
   48.2670   35.0390   42.3220 C   0  0  0  0  0  0  0  0  0  0  0  0
   48.8750   35.4850   41.0630 C   0  0  0  0  0  0  0  0  0  0  0  0
   48.3390   34.9950   39.7640 C   0  0  0  0  0  0  0  0  0  0  0  0
   47.4650   33.8300   39.9430 C   0  0  0  0  0  0  0  0  0  0  0  0
   46.3530   34.2980   40.9500 C   0  0  0  0  0  0  0  0  0  0  0  0
   47.2810   29.4340   46.8990 C   0  0  0  0  0  0  0  0  0  0  0  0
   47.9730   29.5140   47.9760 O   0  0  0  0  0  0  0  0  0  0  0  0
   46.5700   28.1490   46.5770 C   0  0  1  0  0  0  0  0  0  0  0  0
   46.4940   27.1270   47.6090 C   0  0  0  0  0  0  0  0  0  0  0  0
   45.2900   28.0300   47.4380 C   0  0  2  0  0  0  0  0  0  0  0  0
   44.1040   27.3650   46.8880 C   0  0  0  0  0  0  0  0  0  0  0  0
   43.7200   26.2960   47.6930 C   0  0  0  0  0  0  0  0  0  0  0  0
   42.5830   25.5350   47.3970 C   0  0  0  0  0  0  0  0  0  0  0  0
   41.8460   25.8890   46.2620 C   0  0  0  0  0  0  0  0  0  0  0  0
   42.2130   26.9440   45.4560 C   0  0  0  0  0  0  0  0  0  0  0  0
   41.5420   27.3350   44.3250 C   0  0  0  0  0  0  0  0  0  0  0  0
   42.0040   28.4020   43.5750 C   0  0  0  0  0  0  0  0  0  0  0  0
   43.1520   29.1280   43.9150 C   0  0  0  0  0  0  0  0  0  0  0  0
   43.8180   28.7220   45.0600 C   0  0  0  0  0  0  0  0  0  0  0  0
   43.3270   27.6530   45.7860 C   0  0  0  0  0  0  0  0  0  0  0  0
   45.4567   36.2564   42.3852 H   0  0  0  0  0  0  0  0  0  0  0  0
   43.9808   35.6817   46.3057 H   0  0  0  0  0  0  0  0  0  0  0  0
   47.5004   33.1209   42.4310 H   0  0  0  0  0  0  0  0  0  0  0  0
   48.6801   35.3823   43.2819 H   0  0  0  0  0  0  0  0  0  0  0  0
   49.7265   36.1812   41.0794 H   0  0  0  0  0  0  0  0  0  0  0  0
   49.1808   34.7128   39.1146 H   0  0  0  0  0  0  0  0  0  0  0  0
   47.7456   35.8028   39.3110 H   0  0  0  0  0  0  0  0  0  0  0  0
   47.0161   33.5338   38.9834 H   0  0  0  0  0  0  0  0  0  0  0  0
   48.0175   32.9561   40.3186 H   0  0  0  0  0  0  0  0  0  0  0  0
   46.0512   35.3400   40.7678 H   0  0  0  0  0  0  0  0  0  0  0  0
   45.4101   33.7347   40.8896 H   0  0  0  0  0  0  0  0  0  0  0  0
   46.8610   28.0953   45.5176 H   0  0  0  0  0  0  0  0  0  0  0  0
   46.4231   26.0682   47.3193 H   0  0  0  0  0  0  0  0  0  0  0  0
   47.1308   26.8616   48.4658 H   0  0  0  0  0  0  0  0  0  0  0  0
   44.6971   28.7389   48.0346 H   0  0  0  0  0  0  0  0  0  0  0  0
   44.3217   26.0445   48.5788 H   0  0  0  0  0  0  0  0  0  0  0  0
   42.2804   24.6902   48.0332 H   0  0  0  0  0  0  0  0  0  0  0  0
   40.9476   25.3082   46.0058 H   0  0  0  0  0  0  0  0  0  0  0  0
   40.6337   26.7984   44.0134 H   0  0  0  0  0  0  0  0  0  0  0  0
   41.4455   28.6924   42.6729 H   0  0  0  0  0  0  0  0  0  0  0  0
   43.5054   29.9737   43.3068 H   0  0  0  0  0  0  0  0  0  0  0  0
   44.7284   29.2450   45.3881 H   0  0  0  0  0  0  0  0  0  0  0  0
  1  5  1  0
  2  3  1  0
  2  1  2  0
  3  4  1  0
  4  5  2  0
  4 18  1  0
  6  7  2  0
  6 11  1  0
  7  8  1  0
  8  1  1  0
  8  9  2  0
 10  9  1  0
 11 10  2  0
 12 13  1  0
 12  7  1  0
 14 13  2  0
 15 16  1  0
 15 14  1  0
 16 17  1  0
 17 12  1  0
 18 19  2  0
 20 18  1  0
 20 22  1  0
 20 21  1  0
 22 21  1  0
 23 22  1  0
 23 24  2  0
 25 24  1  0
 26 25  2  0
 27 32  2  0
 27 26  1  0
 28 27  1  0
 29 30  1  0
 29 28  2  0
 30 31  2  0
 31 32  1  0
 32 23  1  0
  6 33  1  0
 10 34  1  0
 12 35  1  1
 13 36  1  0
 14 37  1  0
 15 38  1  0
 15 39  1  0
 16 40  1  0
 16 41  1  0
 17 42  1  0
 17 43  1  0
 20 44  1  6
 21 45  1  0
 21 46  1  0
 22 47  1  1
 24 48  1  0
 25 49  1  0
 26 50  1  0
 28 51  1  0
 29 52  1  0
 30 53  1  0
 31 54  1  0
M  END
>  <Score>  (1) 
-7.15908

$$$$
