
     RDKit          3D

 40 43  0  0  0  0  0  0  0  0999 V2000
   46.9950   34.8030   42.0470 C   0  0  0  0  0  0  0  0  0  0  0  0
   48.2090   35.4820   42.0230 C   0  0  0  0  0  0  0  0  0  0  0  0
   48.9140   35.4380   40.8670 C   0  0  0  0  0  0  0  0  0  0  0  0
   48.4480   34.7630   39.8050 N   0  0  0  0  0  0  0  0  0  0  0  0
   47.2720   34.1130   39.8470 C   0  0  0  0  0  0  0  0  0  0  0  0
   46.5460   34.1450   40.9980 N   0  0  0  0  0  0  0  0  0  0  0  0
   46.8330   33.4150   38.6840 N   0  0  0  0  0  0  0  0  0  0  0  0
   45.9450   32.4030   38.9350 C   0  0  0  0  0  0  0  0  0  0  0  0
   45.4350   31.6410   37.8760 C   0  0  0  0  0  0  0  0  0  0  0  0
   45.9000   32.0000   36.6180 C   0  0  0  0  0  0  0  0  0  0  0  0
   45.4150   31.2870   35.6930 O   0  0  0  0  0  0  0  0  0  0  0  0
   46.7660   32.9870   36.3720 N   0  0  0  0  0  0  0  0  0  0  0  0
   47.2290   33.6940   37.4310 C   0  0  0  0  0  0  0  0  0  0  0  0
   48.0430   34.6310   37.2620 O   0  0  0  0  0  0  0  0  0  0  0  0
   44.5110   35.8270   44.6480 C   0  0  0  0  0  0  0  0  0  0  0  0
   45.2430   35.8340   43.4200 C   0  0  0  0  0  0  0  0  0  0  0  0
   46.2260   34.8410   43.2680 C   0  0  0  0  0  0  0  0  0  0  0  0
   46.4130   33.9610   44.2710 N   0  0  0  0  0  0  0  0  0  0  0  0
   45.6950   33.9900   45.4220 C   0  0  0  0  0  0  0  0  0  0  0  0
   44.7520   34.9170   45.6080 N   0  0  0  0  0  0  0  0  0  0  0  0
   45.9610   33.0210   46.4280 N   0  0  0  0  0  0  0  0  0  0  0  0
   47.1140   32.1520   46.5350 C   0  0  0  0  0  0  0  0  0  0  0  0
   47.2570   31.7720   47.9680 C   0  0  0  0  0  0  0  0  0  0  0  0
   46.0970   32.3700   48.6950 C   0  0  0  0  0  0  0  0  0  0  0  0
   45.1290   32.6930   47.5690 C   0  0  0  0  0  0  0  0  0  0  0  0
   48.5794   36.0294   42.9023 H   0  0  0  0  0  0  0  0  0  0  0  0
   49.8791   35.9614   40.7982 H   0  0  0  0  0  0  0  0  0  0  0  0
   45.6324   32.1887   39.9676 H   0  0  0  0  0  0  0  0  0  0  0  0
   44.7196   30.8196   38.0296 H   0  0  0  0  0  0  0  0  0  0  0  0
   47.0707   33.2027   35.4120 H   0  0  0  0  0  0  0  0  0  0  0  0
   43.7310   36.5852   44.8116 H   0  0  0  0  0  0  0  0  0  0  0  0
   45.0469   36.5785   42.6343 H   0  0  0  0  0  0  0  0  0  0  0  0
   46.9640   31.2518   45.9209 H   0  0  0  0  0  0  0  0  0  0  0  0
   48.0196   32.6642   46.1779 H   0  0  0  0  0  0  0  0  0  0  0  0
   47.2443   30.6770   48.0718 H   0  0  0  0  0  0  0  0  0  0  0  0
   48.2094   32.1384   48.3787 H   0  0  0  0  0  0  0  0  0  0  0  0
   45.6579   31.6504   49.4017 H   0  0  0  0  0  0  0  0  0  0  0  0
   46.3671   33.2456   49.3036 H   0  0  0  0  0  0  0  0  0  0  0  0
   44.4941   33.5491   47.8411 H   0  0  0  0  0  0  0  0  0  0  0  0
   44.4549   31.8505   47.3549 H   0  0  0  0  0  0  0  0  0  0  0  0
  1 17  1  0
  2  1  2  0
  3  2  1  0
  4  5  1  0
  4  3  2  0
  5  6  2  0
  6  1  1  0
  7  8  1  0
  7  5  1  0
  9  8  2  0
 10  9  1  0
 11 10  2  0
 12 10  1  0
 12 13  1  0
 13  7  1  0
 14 13  2  0
 15 20  2  0
 16 15  1  0
 17 16  2  0
 17 18  1  0
 18 19  2  0
 19 20  1  0
 19 21  1  0
 21 22  1  0
 21 25  1  0
 22 23  1  0
 23 24  1  0
 25 24  1  0
  2 26  1  0
  3 27  1  0
  8 28  1  0
  9 29  1  0
 12 30  1  0
 15 31  1  0
 16 32  1  0
 22 33  1  0
 22 34  1  0
 23 35  1  0
 23 36  1  0
 24 37  1  0
 24 38  1  0
 25 39  1  0
 25 40  1  0
M  END
>  <Score>  (1) 
-7.60709

$$$$
