
     RDKit          3D

 55 59  0  0  0  0  0  0  0  0999 V2000
   46.4170   34.3690   42.0480 N   0  0  0  0  0  0  0  0  0  0  0  0
   47.5980   35.0850   41.9150 C   0  0  0  0  0  0  0  0  0  0  0  0
   48.3300   35.0330   40.7630 C   0  0  0  0  0  0  0  0  0  0  0  0
   47.8560   34.2360   39.7200 C   0  0  0  0  0  0  0  0  0  0  0  0
   48.5050   34.1790   38.6600 O   0  0  0  0  0  0  0  0  0  0  0  0
   46.7080   33.5650   39.9120 N   0  0  0  0  0  0  0  0  0  0  0  0
   46.0020   33.6320   41.0510 C   0  0  0  0  0  0  0  0  0  0  0  0
   44.9610   33.0590   41.2780 O   0  0  0  0  0  0  0  0  0  0  0  0
   46.1890   32.7250   38.8930 C   0  0  0  0  0  0  0  0  0  0  0  0
   45.2900   33.1740   37.9310 C   0  0  0  0  0  0  0  0  0  0  0  0
   44.8280   32.2860   36.9770 C   0  0  0  0  0  0  0  0  0  0  0  0
   45.2380   30.9730   36.9560 C   0  0  0  0  0  0  0  0  0  0  0  0
   46.1170   30.5770   37.9130 C   0  0  0  0  0  0  0  0  0  0  0  0
   46.6300   31.4250   38.9170 C   0  0  0  0  0  0  0  0  0  0  0  0
   47.6010   30.8810   39.9140 C   0  0  0  0  0  0  0  0  0  0  0  0
   48.9380   31.5270   39.9150 C   0  0  0  0  0  0  0  0  0  0  0  0
   47.0900   30.9130   41.3210 C   0  0  0  0  0  0  0  0  0  0  0  0
   44.4840   35.9460   44.7850 C   0  0  0  0  0  0  0  0  0  0  0  0
   45.0560   35.7220   43.5050 C   0  0  0  0  0  0  0  0  0  0  0  0
   45.8320   34.5870   43.3460 C   0  0  0  0  0  0  0  0  0  0  0  0
   46.0230   33.7410   44.3880 N   0  0  0  0  0  0  0  0  0  0  0  0
   45.4640   33.9830   45.6010 C   0  0  0  0  0  0  0  0  0  0  0  0
   44.7200   35.0490   45.7910 N   0  0  0  0  0  0  0  0  0  0  0  0
   45.7900   32.9080   46.5410 C   0  0  0  0  0  0  0  0  0  0  0  0
   45.2630   32.8470   47.8180 C   0  0  0  0  0  0  0  0  0  0  0  0
   45.5150   31.8600   48.7370 C   0  0  0  0  0  0  0  0  0  0  0  0
   46.3620   30.8610   48.3350 C   0  0  0  0  0  0  0  0  0  0  0  0
   46.9700   30.7860   47.0740 C   0  0  0  0  0  0  0  0  0  0  0  0
   47.7760   29.7200   46.7780 C   0  0  0  0  0  0  0  0  0  0  0  0
   48.2740   29.7610   45.4730 C   0  0  0  0  0  0  0  0  0  0  0  0
   47.9680   30.7710   44.6190 C   0  0  0  0  0  0  0  0  0  0  0  0
   47.1340   31.8400   44.9850 C   0  0  0  0  0  0  0  0  0  0  0  0
   46.6130   31.8330   46.3030 C   0  0  0  0  0  0  0  0  0  0  0  0
   47.9510   35.7054   42.7520 H   0  0  0  0  0  0  0  0  0  0  0  0
   49.2655   35.6025   40.6604 H   0  0  0  0  0  0  0  0  0  0  0  0
   44.9515   34.2206   37.9293 H   0  0  0  0  0  0  0  0  0  0  0  0
   44.1154   32.6380   36.2165 H   0  0  0  0  0  0  0  0  0  0  0  0
   44.8684   30.2711   36.1939 H   0  0  0  0  0  0  0  0  0  0  0  0
   46.4499   29.5286   37.9046 H   0  0  0  0  0  0  0  0  0  0  0  0
   47.7158   29.8430   39.5684 H   0  0  0  0  0  0  0  0  0  0  0  0
   49.2675   31.6862   40.9523 H   0  0  0  0  0  0  0  0  0  0  0  0
   49.6592   30.8780   39.3967 H   0  0  0  0  0  0  0  0  0  0  0  0
   48.8777   32.4954   39.3967 H   0  0  0  0  0  0  0  0  0  0  0  0
   47.9375   30.8599   42.0202 H   0  0  0  0  0  0  0  0  0  0  0  0
   46.5347   31.8477   41.4882 H   0  0  0  0  0  0  0  0  0  0  0  0
   46.4224   30.0549   41.4882 H   0  0  0  0  0  0  0  0  0  0  0  0
   43.8574   36.8318   44.9662 H   0  0  0  0  0  0  0  0  0  0  0  0
   44.8892   36.4222   42.6732 H   0  0  0  0  0  0  0  0  0  0  0  0
   44.5849   33.6578   48.1225 H   0  0  0  0  0  0  0  0  0  0  0  0
   45.0627   31.8702   49.7397 H   0  0  0  0  0  0  0  0  0  0  0  0
   46.5812   30.0586   49.0548 H   0  0  0  0  0  0  0  0  0  0  0  0
   48.0073   28.9159   47.4921 H   0  0  0  0  0  0  0  0  0  0  0  0
   48.9333   28.9511   45.1275 H   0  0  0  0  0  0  0  0  0  0  0  0
   48.3888   30.7513   43.6029 H   0  0  0  0  0  0  0  0  0  0  0  0
   46.8952   32.6486   44.2785 H   0  0  0  0  0  0  0  0  0  0  0  0
  1 20  1  0
  2  1  1  0
  3  2  2  0
  4  6  1  0
  4  3  1  0
  5  4  2  0
  6  7  1  0
  7  8  2  0
  7  1  1  0
  9 14  1  0
  9  6  1  0
 10  9  2  0
 11 10  1  0
 12 11  2  0
 12 13  1  0
 13 14  2  0
 14 15  1  0
 15 16  1  0
 15 17  1  0
 18 23  2  0
 19 18  1  0
 20 19  2  0
 20 21  1  0
 21 22  2  0
 22 23  1  0
 22 24  1  0
 24 25  2  0
 25 26  1  0
 27 26  2  0
 28 27  1  0
 29 28  2  0
 30 29  1  0
 31 32  1  0
 31 30  2  0
 32 33  2  0
 33 24  1  0
 33 28  1  0
  2 34  1  0
  3 35  1  0
 10 36  1  0
 11 37  1  0
 12 38  1  0
 13 39  1  0
 15 40  1  0
 16 41  1  0
 16 42  1  0
 16 43  1  0
 17 44  1  0
 17 45  1  0
 17 46  1  0
 18 47  1  0
 19 48  1  0
 25 49  1  0
 26 50  1  0
 27 51  1  0
 29 52  1  0
 30 53  1  0
 31 54  1  0
 32 55  1  0
M  END
>  <Score>  (1) 
-7.21707

$$$$
