
     RDKit          3D

 44 48  0  0  0  0  0  0  0  0999 V2000
   44.9920   33.1450   41.2630 N   0  0  0  0  0  0  0  0  0  0  0  0
   44.8380   31.8910   41.7910 C   0  0  0  0  0  0  0  0  0  0  0  0
   43.5890   31.3340   41.8740 C   0  0  0  0  0  0  0  0  0  0  0  0
   42.4740   32.0040   41.4380 C   0  0  0  0  0  0  0  0  0  0  0  0
   41.3390   31.4560   41.5310 O   0  0  0  0  0  0  0  0  0  0  0  0
   42.6660   33.2580   40.9140 N   0  0  0  0  0  0  0  0  0  0  0  0
   43.8830   33.7890   40.8380 C   0  0  0  0  0  0  0  0  0  0  0  0
   43.9140   34.9570   40.3320 O   0  0  0  0  0  0  0  0  0  0  0  0
   41.4670   33.8940   40.4820 C   0  0  0  0  0  0  0  0  0  0  0  0
   41.3310   35.1610   40.9250 N   0  0  0  0  0  0  0  0  0  0  0  0
   40.2400   35.9140   40.6040 C   0  0  0  0  0  0  0  0  0  0  0  0
   39.2580   35.3940   39.8230 N   0  0  0  0  0  0  0  0  0  0  0  0
   39.3800   34.1420   39.3790 C   0  0  0  0  0  0  0  0  0  0  0  0
   38.4120   33.5540   38.5780 C   0  0  0  0  0  0  0  0  0  0  0  0
   38.5840   32.2390   38.1360 C   0  0  0  0  0  0  0  0  0  0  0  0
   39.6980   31.4980   38.4760 C   0  0  0  0  0  0  0  0  0  0  0  0
   40.6810   32.0580   39.2750 C   0  0  0  0  0  0  0  0  0  0  0  0
   40.4740   33.3580   39.6880 C   0  0  0  0  0  0  0  0  0  0  0  0
   46.6480   34.6630   42.1280 C   0  0  0  0  0  0  0  0  0  0  0  0
   47.8230   35.3450   41.9510 C   0  0  0  0  0  0  0  0  0  0  0  0
   48.5740   35.2460   40.7720 C   0  0  0  0  0  0  0  0  0  0  0  0
   48.0950   34.4160   39.7430 C   0  0  0  0  0  0  0  0  0  0  0  0
   46.9020   33.7230   39.9220 C   0  0  0  0  0  0  0  0  0  0  0  0
   46.2010   33.8590   41.1060 C   0  0  0  0  0  0  0  0  0  0  0  0
   44.4430   35.9310   44.9170 C   0  0  0  0  0  0  0  0  0  0  0  0
   45.0620   35.8650   43.6680 C   0  0  0  0  0  0  0  0  0  0  0  0
   45.9450   34.8360   43.3900 C   0  0  0  0  0  0  0  0  0  0  0  0
   46.1820   33.9070   44.3660 N   0  0  0  0  0  0  0  0  0  0  0  0
   45.5640   33.9940   45.5790 C   0  0  0  0  0  0  0  0  0  0  0  0
   44.7120   34.9850   45.8520 N   0  0  0  0  0  0  0  0  0  0  0  0
   45.7155   31.3318   42.1479 H   0  0  0  0  0  0  0  0  0  0  0  0
   43.4776   30.3260   42.3002 H   0  0  0  0  0  0  0  0  0  0  0  0
   40.1552   36.9448   40.9785 H   0  0  0  0  0  0  0  0  0  0  0  0
   37.5132   34.1199   38.2919 H   0  0  0  0  0  0  0  0  0  0  0  0
   37.8110   31.7825   37.5003 H   0  0  0  0  0  0  0  0  0  0  0  0
   39.8047   30.4651   38.1132 H   0  0  0  0  0  0  0  0  0  0  0  0
   41.5804   31.4952   39.5653 H   0  0  0  0  0  0  0  0  0  0  0  0
   48.1892   35.9921   42.7617 H   0  0  0  0  0  0  0  0  0  0  0  0
   49.5148   35.8037   40.6545 H   0  0  0  0  0  0  0  0  0  0  0  0
   48.6590   34.3154   38.8040 H   0  0  0  0  0  0  0  0  0  0  0  0
   46.5180   33.0695   39.1248 H   0  0  0  0  0  0  0  0  0  0  0  0
   43.7400   36.7464   45.1426 H   0  0  0  0  0  0  0  0  0  0  0  0
   44.8486   36.6291   42.9060 H   0  0  0  0  0  0  0  0  0  0  0  0
   45.7715   33.2336   46.3464 H   0  0  0  0  0  0  0  0  0  0  0  0
  1  2  1  0
  2  3  2  0
  4  5  2  0
  4  3  1  0
  6  4  1  0
  7  6  1  0
  7  1  1  0
  8  7  2  0
  9  6  1  0
  9 10  2  0
 11 10  1  0
 12 11  2  0
 13 18  2  0
 13 12  1  0
 14 13  1  0
 15 16  1  0
 15 14  2  0
 16 17  2  0
 17 18  1  0
 18  9  1  0
 19 27  1  0
 20 19  2  0
 21 20  1  0
 22 23  1  0
 22 21  2  0
 23 24  2  0
 24  1  1  0
 24 19  1  0
 25 30  2  0
 26 25  1  0
 27 26  2  0
 27 28  1  0
 28 29  2  0
 29 30  1  0
  2 31  1  0
  3 32  1  0
 11 33  1  0
 14 34  1  0
 15 35  1  0
 16 36  1  0
 17 37  1  0
 20 38  1  0
 21 39  1  0
 22 40  1  0
 23 41  1  0
 25 42  1  0
 26 43  1  0
 29 44  1  0
M  END
>  <Score>  (1) 
-8.60549

$$$$
