
     RDKit          3D

 49 53  0  0  1  0  0  0  0  0999 V2000
   47.0810   34.4130   42.6920 N   0  0  0  0  0  0  0  0  0  0  0  0
   48.5210   34.4210   42.7540 C   0  0  0  0  0  0  0  0  0  0  0  0
   49.1060   33.9140   41.4820 C   0  0  0  0  0  0  0  0  0  0  0  0
   48.5110   34.6740   40.3890 N   0  0  0  0  0  0  0  0  0  0  0  0
   47.1780   34.1410   40.2520 C   0  0  0  0  0  0  0  0  0  0  0  0
   46.3350   34.4200   41.4660 C   0  0  1  0  0  0  0  0  0  0  0  0
   44.6490   35.2440   45.4090 C   0  0  0  0  0  0  0  0  0  0  0  0
   45.3280   35.3230   44.1970 C   0  0  0  0  0  0  0  0  0  0  0  0
   46.3460   34.3960   43.9030 C   0  0  0  0  0  0  0  0  0  0  0  0
   46.5850   33.4670   44.8690 N   0  0  0  0  0  0  0  0  0  0  0  0
   45.9280   33.3960   46.0340 C   0  0  0  0  0  0  0  0  0  0  0  0
   44.9720   34.2770   46.2970 N   0  0  0  0  0  0  0  0  0  0  0  0
   46.2410   32.3910   46.9930 N   0  0  0  0  0  0  0  0  0  0  0  0
   47.4420   32.4830   47.7970 C   0  0  0  0  0  0  0  0  0  0  0  0
   47.3920   31.4330   48.8810 C   0  0  0  0  0  0  0  0  0  0  0  0
   46.1060   31.3410   49.5140 N   0  0  0  0  0  0  0  0  0  0  0  0
   44.9950   31.1990   48.6470 C   0  0  0  0  0  0  0  0  0  0  0  0
   45.3510   31.2460   47.1790 C   0  0  0  0  0  0  0  0  0  0  0  0
   45.1690   33.5740   41.4730 N   0  0  0  0  0  0  0  0  0  0  0  0
   45.0830   32.2560   41.6230 C   0  0  0  0  0  0  0  0  0  0  0  0
   43.7960   31.8090   41.5730 N   0  0  0  0  0  0  0  0  0  0  0  0
   43.0130   32.8980   41.3810 C   0  0  0  0  0  0  0  0  0  0  0  0
   41.6600   33.1310   41.2450 C   0  0  0  0  0  0  0  0  0  0  0  0
   41.2020   34.4010   41.0570 N   0  0  0  0  0  0  0  0  0  0  0  0
   42.0800   35.4240   41.0060 C   0  0  0  0  0  0  0  0  0  0  0  0
   43.4020   35.2170   41.1370 N   0  0  0  0  0  0  0  0  0  0  0  0
   43.8770   33.9600   41.3250 C   0  0  0  0  0  0  0  0  0  0  0  0
   48.8692   35.4501   42.9265 H   0  0  0  0  0  0  0  0  0  0  0  0
   48.8429   33.7658   43.5769 H   0  0  0  0  0  0  0  0  0  0  0  0
   50.1967   34.0566   41.4877 H   0  0  0  0  0  0  0  0  0  0  0  0
   48.8995   32.8401   41.3630 H   0  0  0  0  0  0  0  0  0  0  0  0
   48.4786   35.6772   40.6202 H   0  0  0  0  0  0  0  0  0  0  0  0
   46.7000   34.5999   39.3740 H   0  0  0  0  0  0  0  0  0  0  0  0
   47.2573   33.0501   40.1354 H   0  0  0  0  0  0  0  0  0  0  0  0
   45.9739   35.4567   41.3967 H   0  0  0  0  0  0  0  0  0  0  0  0
   43.8525   35.9655   45.6437 H   0  0  0  0  0  0  0  0  0  0  0  0
   45.0701   36.1077   43.4705 H   0  0  0  0  0  0  0  0  0  0  0  0
   48.3243   32.3151   47.1619 H   0  0  0  0  0  0  0  0  0  0  0  0
   47.5082   33.4824   48.2517 H   0  0  0  0  0  0  0  0  0  0  0  0
   47.6339   30.4570   48.4351 H   0  0  0  0  0  0  0  0  0  0  0  0
   48.1192   31.7228   49.6537 H   0  0  0  0  0  0  0  0  0  0  0  0
   46.1218   30.5248   50.1420 H   0  0  0  0  0  0  0  0  0  0  0  0
   44.5148   30.2316   48.8557 H   0  0  0  0  0  0  0  0  0  0  0  0
   44.3291   32.0529   48.8405 H   0  0  0  0  0  0  0  0  0  0  0  0
   44.4415   31.3718   46.5733 H   0  0  0  0  0  0  0  0  0  0  0  0
   45.8398   30.3126   46.8628 H   0  0  0  0  0  0  0  0  0  0  0  0
   45.9530   31.5994   41.7709 H   0  0  0  0  0  0  0  0  0  0  0  0
   40.9505   32.2915   41.2883 H   0  0  0  0  0  0  0  0  0  0  0  0
   41.7070   36.4476   40.8543 H   0  0  0  0  0  0  0  0  0  0  0  0
  1  2  1  0
  1  9  1  0
  3  2  1  0
  4  3  1  0
  5  4  1  0
  5  6  1  0
  6 19  1  0
  6  1  1  0
  7 12  2  0
  8  7  1  0
  9  8  2  0
  9 10  1  0
 10 11  2  0
 11 12  1  0
 11 13  1  0
 13 18  1  0
 13 14  1  0
 14 15  1  0
 15 16  1  0
 17 16  1  0
 18 17  1  0
 19 20  1  0
 21 20  2  0
 22 21  1  0
 23 22  2  0
 24 23  1  0
 25 24  2  0
 25 26  1  0
 26 27  2  0
 27 22  1  0
 27 19  1  0
  2 28  1  0
  2 29  1  0
  3 30  1  0
  3 31  1  0
  4 32  1  0
  5 33  1  0
  5 34  1  0
  6 35  1  6
  7 36  1  0
  8 37  1  0
 14 38  1  0
 14 39  1  0
 15 40  1  0
 15 41  1  0
 16 42  1  0
 17 43  1  0
 17 44  1  0
 18 45  1  0
 18 46  1  0
 20 47  1  0
 23 48  1  0
 25 49  1  0
M  END
>  <Score>  (1) 
-7.33112

$$$$
