
     RDKit          3D

 52 56  0  0  0  0  0  0  0  0999 V2000
   46.9660   34.7860   41.9750 C   0  0  0  0  0  0  0  0  0  0  0  0
   48.2450   35.2910   41.7690 C   0  0  0  0  0  0  0  0  0  0  0  0
   48.5350   34.8990   40.4650 C   0  0  0  0  0  0  0  0  0  0  0  0
   47.4260   34.1900   39.9670 C   0  0  0  0  0  0  0  0  0  0  0  0
   46.5170   34.1550   40.9190 O   0  0  0  0  0  0  0  0  0  0  0  0
   44.4880   36.0180   44.4660 C   0  0  0  0  0  0  0  0  0  0  0  0
   45.2590   35.9190   43.2570 C   0  0  0  0  0  0  0  0  0  0  0  0
   46.1720   34.9080   43.1870 C   0  0  0  0  0  0  0  0  0  0  0  0
   46.3120   34.0550   44.2400 N   0  0  0  0  0  0  0  0  0  0  0  0
   45.5710   34.1730   45.3670 C   0  0  0  0  0  0  0  0  0  0  0  0
   44.6630   35.1530   45.4740 N   0  0  0  0  0  0  0  0  0  0  0  0
   45.8430   33.1940   46.3780 N   0  0  0  0  0  0  0  0  0  0  0  0
   45.1780   33.1250   47.5240 N   0  0  0  0  0  0  0  0  0  0  0  0
   45.6430   32.1120   48.2810 C   0  0  0  0  0  0  0  0  0  0  0  0
   46.6780   31.4970   47.5590 C   0  0  0  0  0  0  0  0  0  0  0  0
   46.7710   32.2050   46.3720 C   0  0  0  0  0  0  0  0  0  0  0  0
   47.3400   33.6290   38.6700 N   0  0  0  0  0  0  0  0  0  0  0  0
   46.5430   32.5540   38.5160 C   0  0  0  0  0  0  0  0  0  0  0  0
   46.4060   31.9520   37.2960 C   0  0  0  0  0  0  0  0  0  0  0  0
   47.0960   32.4570   36.2150 C   0  0  0  0  0  0  0  0  0  0  0  0
   46.9730   31.9070   35.0940 O   0  0  0  0  0  0  0  0  0  0  0  0
   47.8820   33.5380   36.4250 N   0  0  0  0  0  0  0  0  0  0  0  0
   48.0020   34.1210   37.6500 C   0  0  0  0  0  0  0  0  0  0  0  0
   48.7460   35.1190   37.7760 O   0  0  0  0  0  0  0  0  0  0  0  0
   45.5200   30.7580   37.2000 C   0  0  0  0  0  0  0  0  0  0  0  0
   44.1130   31.1450   37.2400 N   0  0  0  0  0  0  0  0  0  0  0  0
   43.4910   30.5950   36.0800 C   0  0  0  0  0  0  0  0  0  0  0  0
   42.0520   30.2490   36.1930 C   0  0  0  0  0  0  0  0  0  0  0  0
   41.2980   30.8830   37.3160 C   0  0  0  0  0  0  0  0  0  0  0  0
   42.1090   31.0490   38.5720 C   0  0  0  0  0  0  0  0  0  0  0  0
   43.5300   30.5830   38.4170 C   0  0  0  0  0  0  0  0  0  0  0  0
   48.8750   35.8618   42.4671 H   0  0  0  0  0  0  0  0  0  0  0  0
   49.4674   35.1070   39.9196 H   0  0  0  0  0  0  0  0  0  0  0  0
   43.7404   36.8188   44.5655 H   0  0  0  0  0  0  0  0  0  0  0  0
   45.1192   36.6262   42.4262 H   0  0  0  0  0  0  0  0  0  0  0  0
   45.2798   31.8214   49.2778 H   0  0  0  0  0  0  0  0  0  0  0  0
   47.2865   30.6351   47.8701 H   0  0  0  0  0  0  0  0  0  0  0  0
   47.4813   31.9988   45.5578 H   0  0  0  0  0  0  0  0  0  0  0  0
   45.9954   32.1554   39.3828 H   0  0  0  0  0  0  0  0  0  0  0  0
   48.4072   33.9333   35.6320 H   0  0  0  0  0  0  0  0  0  0  0  0
   45.7318   30.0844   38.0435 H   0  0  0  0  0  0  0  0  0  0  0  0
   45.7168   30.2520   36.2433 H   0  0  0  0  0  0  0  0  0  0  0  0
   44.0345   29.6761   35.8150 H   0  0  0  0  0  0  0  0  0  0  0  0
   43.5370   31.3921   35.3233 H   0  0  0  0  0  0  0  0  0  0  0  0
   41.5627   30.5451   35.2533 H   0  0  0  0  0  0  0  0  0  0  0  0
   42.0288   29.1691   36.4011 H   0  0  0  0  0  0  0  0  0  0  0  0
   40.9579   31.8765   36.9885 H   0  0  0  0  0  0  0  0  0  0  0  0
   40.4613   30.2120   37.5603 H   0  0  0  0  0  0  0  0  0  0  0  0
   42.1169   32.1142   38.8464 H   0  0  0  0  0  0  0  0  0  0  0  0
   41.6415   30.4289   39.3511 H   0  0  0  0  0  0  0  0  0  0  0  0
   43.5453   29.4858   38.3406 H   0  0  0  0  0  0  0  0  0  0  0  0
   44.1099   30.9091   39.2930 H   0  0  0  0  0  0  0  0  0  0  0  0
  1  8  1  0
  2  1  2  0
  3  2  1  0
  4  3  2  0
  4  5  1  0
  5  1  1  0
  6 11  2  0
  7  6  1  0
  8  7  2  0
  8  9  1  0
  9 10  2  0
 10 11  1  0
 10 12  1  0
 12 13  1  0
 13 14  2  0
 15 14  1  0
 16 12  1  0
 16 15  2  0
 17  4  1  0
 18 17  1  0
 19 18  2  0
 20 22  1  0
 20 19  1  0
 21 20  2  0
 22 23  1  0
 23 24  2  0
 23 17  1  0
 25 26  1  0
 25 19  1  0
 26 31  1  0
 27 28  1  0
 27 26  1  0
 28 29  1  0
 29 30  1  0
 31 30  1  0
  2 32  1  0
  3 33  1  0
  6 34  1  0
  7 35  1  0
 14 36  1  0
 15 37  1  0
 16 38  1  0
 18 39  1  0
 22 40  1  0
 25 41  1  0
 25 42  1  0
 27 43  1  0
 27 44  1  0
 28 45  1  0
 28 46  1  0
 29 47  1  0
 29 48  1  0
 30 49  1  0
 30 50  1  0
 31 51  1  0
 31 52  1  0
M  END
>  <Score>  (1) 
-7.46906

$$$$
