
     RDKit          3D

 49 54  0  0  1  0  0  0  0  0999 V2000
   45.7600   33.8610   45.4860 C   0  0  0  0  0  0  0  0  0  0  0  0
   46.5600   33.8620   44.3440 C   0  0  0  0  0  0  0  0  0  0  0  0
   46.3370   34.8300   43.3650 C   0  0  0  0  0  0  0  0  0  0  0  0
   45.3510   35.7360   43.5560 N   0  0  0  0  0  0  0  0  0  0  0  0
   44.5880   35.7190   44.6680 C   0  0  0  0  0  0  0  0  0  0  0  0
   44.7960   34.7850   45.6240 N   0  0  0  0  0  0  0  0  0  0  0  0
   47.1840   34.8130   42.1790 C   0  0  0  0  0  0  0  0  0  0  0  0
   48.4530   35.3730   42.0510 C   0  0  0  0  0  0  0  0  0  0  0  0
   48.9280   35.1650   40.8220 N   0  0  0  0  0  0  0  0  0  0  0  0
   47.9730   34.4710   40.1470 C   0  0  0  0  0  0  0  0  0  0  0  0
   47.9540   33.9970   38.8400 C   0  0  0  0  0  0  0  0  0  0  0  0
   46.8630   33.3150   38.3910 C   0  0  0  0  0  0  0  0  0  0  0  0
   45.7360   33.0570   39.1760 C   0  0  0  0  0  0  0  0  0  0  0  0
   45.8190   33.5530   40.4640 C   0  0  0  0  0  0  0  0  0  0  0  0
   46.8680   34.2330   40.9650 C   0  0  0  0  0  0  0  0  0  0  0  0
   45.9290   32.9310   46.4910 O   0  0  0  0  0  0  0  0  0  0  0  0
   45.0780   32.7700   47.5900 C   0  0  1  0  0  0  0  0  0  0  0  0
   44.7940   31.3590   47.9820 C   0  0  0  0  0  0  0  0  0  0  0  0
   45.7160   32.2460   48.8350 C   0  0  1  0  0  0  0  0  0  0  0  0
   47.1680   31.8850   48.7760 C   0  0  0  0  0  0  0  0  0  0  0  0
   47.9460   32.6260   48.1110 O   0  0  0  0  0  0  0  0  0  0  0  0
   47.7930   30.8260   49.3560 O   0  0  0  0  0  0  0  0  0  0  0  0
   48.9450   30.3450   48.7450 C   0  0  0  0  0  0  0  0  0  0  0  0
   48.9610   29.6160   47.5980 N   0  0  0  0  0  0  0  0  0  0  0  0
   50.1120   29.1790   47.0540 C   0  0  0  0  0  0  0  0  0  0  0  0
   51.3350   29.4290   47.6050 N   0  0  0  0  0  0  0  0  0  0  0  0
   51.3610   30.1490   48.7410 C   0  0  0  0  0  0  0  0  0  0  0  0
   52.5530   30.4330   49.3410 C   0  0  0  0  0  0  0  0  0  0  0  0
   52.5870   31.1740   50.5120 C   0  0  0  0  0  0  0  0  0  0  0  0
   51.4220   31.6350   51.0900 C   0  0  0  0  0  0  0  0  0  0  0  0
   50.2350   31.3370   50.4700 C   0  0  0  0  0  0  0  0  0  0  0  0
   50.1890   30.6030   49.3070 C   0  0  0  0  0  0  0  0  0  0  0  0
   47.3541   33.1115   44.2173 H   0  0  0  0  0  0  0  0  0  0  0  0
   43.7930   36.4680   44.7981 H   0  0  0  0  0  0  0  0  0  0  0  0
   48.9869   35.9098   42.8490 H   0  0  0  0  0  0  0  0  0  0  0  0
   49.8408   35.4707   40.4555 H   0  0  0  0  0  0  0  0  0  0  0  0
   48.8122   34.1710   38.1742 H   0  0  0  0  0  0  0  0  0  0  0  0
   46.8698   32.9476   37.3542 H   0  0  0  0  0  0  0  0  0  0  0  0
   44.8596   32.5074   38.8020 H   0  0  0  0  0  0  0  0  0  0  0  0
   44.9619   33.3787   41.1311 H   0  0  0  0  0  0  0  0  0  0  0  0
   44.4524   33.6450   47.3599 H   0  0  0  0  0  0  0  0  0  0  0  0
   43.7976   31.0788   48.3543 H   0  0  0  0  0  0  0  0  0  0  0  0
   44.8837   30.3773   47.4939 H   0  0  0  0  0  0  0  0  0  0  0  0
   45.7577   32.5879   49.8797 H   0  0  0  0  0  0  0  0  0  0  0  0
   50.0646   28.5941   46.1236 H   0  0  0  0  0  0  0  0  0  0  0  0
   53.4910   30.0724   48.8936 H   0  0  0  0  0  0  0  0  0  0  0  0
   53.5542   31.3971   50.9861 H   0  0  0  0  0  0  0  0  0  0  0  0
   51.4443   32.2233   52.0192 H   0  0  0  0  0  0  0  0  0  0  0  0
   49.2945   31.6945   50.9147 H   0  0  0  0  0  0  0  0  0  0  0  0
  1  6  1  0
  1 16  1  0
  2  1  2  0
  3  4  2  0
  3  2  1  0
  4  5  1  0
  5  6  2  0
  7  3  1  0
  8  7  2  0
  9  8  1  0
 10  9  1  0
 10 15  2  0
 11 10  1  0
 12 11  2  0
 12 13  1  0
 13 14  2  0
 14 15  1  0
 15  7  1  0
 16 17  1  0
 17 18  1  0
 17 19  1  0
 18 19  1  0
 20 19  1  0
 20 22  1  0
 21 20  2  0
 23 32  1  0
 23 22  1  0
 24 23  2  0
 25 24  1  0
 25 26  2  0
 26 27  1  0
 27 32  2  0
 27 28  1  0
 28 29  2  0
 29 30  1  0
 31 30  2  0
 32 31  1  0
  2 33  1  0
  5 34  1  0
  8 35  1  0
  9 36  1  0
 11 37  1  0
 12 38  1  0
 13 39  1  0
 14 40  1  0
 17 41  1  1
 18 42  1  0
 18 43  1  0
 19 44  1  1
 25 45  1  0
 28 46  1  0
 29 47  1  0
 30 48  1  0
 31 49  1  0
M  END
>  <Score>  (1) 
-7.57125

$$$$
