
     RDKit          3D

 40 44  0  0  0  0  0  0  0  0999 V2000
   44.8800   35.3450   44.4520 C   0  0  0  0  0  0  0  0  0  0  0  0
   45.5420   35.6270   43.2430 C   0  0  0  0  0  0  0  0  0  0  0  0
   46.5160   34.7470   42.8460 C   0  0  0  0  0  0  0  0  0  0  0  0
   46.7250   33.7030   43.6720 N   0  0  0  0  0  0  0  0  0  0  0  0
   46.1220   33.4030   44.8190 C   0  0  0  0  0  0  0  0  0  0  0  0
   45.2180   34.2750   45.1300 N   0  0  0  0  0  0  0  0  0  0  0  0
   46.6100   32.1920   45.4350 C   0  0  0  0  0  0  0  0  0  0  0  0
   47.4180   31.3060   44.7390 C   0  0  0  0  0  0  0  0  0  0  0  0
   47.9040   30.1340   45.2780 C   0  0  0  0  0  0  0  0  0  0  0  0
   47.6000   29.7900   46.5570 C   0  0  0  0  0  0  0  0  0  0  0  0
   46.8070   30.6330   47.2810 C   0  0  0  0  0  0  0  0  0  0  0  0
   46.5040   30.2700   48.5870 C   0  0  0  0  0  0  0  0  0  0  0  0
   45.7150   31.0710   49.3660 C   0  0  0  0  0  0  0  0  0  0  0  0
   45.2260   32.2570   48.8150 C   0  0  0  0  0  0  0  0  0  0  0  0
   45.5680   32.5520   47.5140 C   0  0  0  0  0  0  0  0  0  0  0  0
   46.3500   31.7820   46.7030 C   0  0  0  0  0  0  0  0  0  0  0  0
   47.3000   34.8210   41.6310 C   0  0  0  0  0  0  0  0  0  0  0  0
   48.4650   35.5980   41.5770 C   0  0  0  0  0  0  0  0  0  0  0  0
   49.0200   35.5410   40.3560 N   0  0  0  0  0  0  0  0  0  0  0  0
   48.2770   34.7520   39.5630 C   0  0  0  0  0  0  0  0  0  0  0  0
   48.3530   34.3490   38.2460 C   0  0  0  0  0  0  0  0  0  0  0  0
   47.4020   33.5190   37.6900 C   0  0  0  0  0  0  0  0  0  0  0  0
   46.3570   33.1010   38.5130 C   0  0  0  0  0  0  0  0  0  0  0  0
   46.3050   33.5160   39.8190 C   0  0  0  0  0  0  0  0  0  0  0  0
   47.2390   34.3280   40.3590 C   0  0  0  0  0  0  0  0  0  0  0  0
   44.0893   36.0134   44.8235 H   0  0  0  0  0  0  0  0  0  0  0  0
   45.2896   36.5137   42.6430 H   0  0  0  0  0  0  0  0  0  0  0  0
   47.6857   31.5515   43.7007 H   0  0  0  0  0  0  0  0  0  0  0  0
   48.5407   29.4744   44.6701 H   0  0  0  0  0  0  0  0  0  0  0  0
   47.9826   28.8573   46.9971 H   0  0  0  0  0  0  0  0  0  0  0  0
   46.9019   29.3305   48.9983 H   0  0  0  0  0  0  0  0  0  0  0  0
   45.4718   30.7878   50.4007 H   0  0  0  0  0  0  0  0  0  0  0  0
   44.5878   32.9343   49.4015 H   0  0  0  0  0  0  0  0  0  0  0  0
   45.1769   33.4895   47.0920 H   0  0  0  0  0  0  0  0  0  0  0  0
   48.8698   36.1762   42.4207 H   0  0  0  0  0  0  0  0  0  0  0  0
   49.8823   36.0272   40.0714 H   0  0  0  0  0  0  0  0  0  0  0  0
   49.1913   34.6976   37.6249 H   0  0  0  0  0  0  0  0  0  0  0  0
   47.4655   33.1996   36.6393 H   0  0  0  0  0  0  0  0  0  0  0  0
   45.5744   32.4385   38.1148 H   0  0  0  0  0  0  0  0  0  0  0  0
   45.4713   33.1747   40.4502 H   0  0  0  0  0  0  0  0  0  0  0  0
  1  6  2  0
  2  1  1  0
  3  2  2  0
  3  4  1  0
  4  5  2  0
  5  6  1  0
  5  7  1  0
  7 16  2  0
  8  9  2  0
  8  7  1  0
  9 10  1  0
 10 11  2  0
 11 12  1  0
 12 13  2  0
 14 13  1  0
 15 14  2  0
 16 11  1  0
 16 15  1  0
 17  3  1  0
 18 17  2  0
 19 18  1  0
 20 19  1  0
 20 25  2  0
 21 20  1  0
 22 21  2  0
 22 23  1  0
 23 24  2  0
 24 25  1  0
 25 17  1  0
  1 26  1  0
  2 27  1  0
  8 28  1  0
  9 29  1  0
 10 30  1  0
 12 31  1  0
 13 32  1  0
 14 33  1  0
 15 34  1  0
 18 35  1  0
 19 36  1  0
 21 37  1  0
 22 38  1  0
 23 39  1  0
 24 40  1  0
M  END
>  <Score>  (1) 
-7.58599

$$$$
