
     RDKit          3D

 30 32  0  0  0  0  0  0  0  0999 V2000
   46.9950   34.7880   42.0940 C   0  0  0  0  0  0  0  0  0  0  0  0
   48.2700   35.2700   41.8900 C   0  0  0  0  0  0  0  0  0  0  0  0
   48.5150   34.9680   40.5460 C   0  0  0  0  0  0  0  0  0  0  0  0
   47.4080   34.3360   40.0190 C   0  0  0  0  0  0  0  0  0  0  0  0
   46.5450   34.2670   41.0040 O   0  0  0  0  0  0  0  0  0  0  0  0
   44.5030   35.7540   44.6730 C   0  0  0  0  0  0  0  0  0  0  0  0
   45.2180   35.7580   43.4510 C   0  0  0  0  0  0  0  0  0  0  0  0
   46.2240   34.8320   43.3260 C   0  0  0  0  0  0  0  0  0  0  0  0
   46.4990   33.9590   44.3520 N   0  0  0  0  0  0  0  0  0  0  0  0
   45.7840   33.9960   45.5030 C   0  0  0  0  0  0  0  0  0  0  0  0
   44.7880   34.8920   45.6630 N   0  0  0  0  0  0  0  0  0  0  0  0
   46.0580   33.0980   46.5710 N   0  0  0  0  0  0  0  0  0  0  0  0
   47.0370   32.2510   46.9370 C   0  0  0  0  0  0  0  0  0  0  0  0
   46.6790   31.6740   48.1020 N   0  0  0  0  0  0  0  0  0  0  0  0
   45.4700   32.1680   48.4570 C   0  0  0  0  0  0  0  0  0  0  0  0
   45.0980   33.0550   47.4920 N   0  0  0  0  0  0  0  0  0  0  0  0
   47.2490   33.8690   38.6950 N   0  0  0  0  0  0  0  0  0  0  0  0
   48.2810   33.9660   37.7300 C   0  0  0  0  0  0  0  0  0  0  0  0
   49.0440   35.0190   37.7660 N   0  0  0  0  0  0  0  0  0  0  0  0
   48.4100   32.8960   36.7820 N   0  0  0  0  0  0  0  0  0  0  0  0
   49.8330   35.0270   37.0820 H   0  0  0  0  0  0  0  0  0  0  0  0
   48.9342   35.7709   42.6097 H   0  0  0  0  0  0  0  0  0  0  0  0
   49.4408   35.1975   39.9981 H   0  0  0  0  0  0  0  0  0  0  0  0
   43.6886   36.4795   44.8162 H   0  0  0  0  0  0  0  0  0  0  0  0
   44.9799   36.4662   42.6437 H   0  0  0  0  0  0  0  0  0  0  0  0
   47.9679   32.0620   46.3823 H   0  0  0  0  0  0  0  0  0  0  0  0
   44.8951   31.9029   49.3566 H   0  0  0  0  0  0  0  0  0  0  0  0
   46.3516   33.4433   38.4223 H   0  0  0  0  0  0  0  0  0  0  0  0
   47.7646   32.0941   36.8195 H   0  0  0  0  0  0  0  0  0  0  0  0
   49.1480   32.9300   36.0643 H   0  0  0  0  0  0  0  0  0  0  0  0
  1  8  1  0
  2  1  2  0
  3  2  1  0
  4  3  2  0
  4  5  1  0
  5  1  1  0
  6 11  2  0
  7  6  1  0
  8  7  2  0
  8  9  1  0
  9 10  2  0
 10 11  1  0
 10 12  1  0
 12 13  1  0
 12 16  1  0
 13 14  2  0
 14 15  1  0
 16 15  2  0
 17  4  1  0
 18 19  2  0
 18 17  1  0
 20 18  1  0
 21 19  1  0
  2 22  1  0
  3 23  1  0
  6 24  1  0
  7 25  1  0
 13 26  1  0
 15 27  1  0
 17 28  1  0
 20 29  1  0
 20 30  1  0
M  END
>  <Score>  (1) 
-7.07023

$$$$
