
     RDKit          3D

 36 39  0  0  0  0  0  0  0  0999 V2000
   47.7620   32.2500   48.2520 C   0  0  0  0  0  0  0  0  0  0  0  0
   47.4560   30.8890   48.2820 C   0  0  0  0  0  0  0  0  0  0  0  0
   46.6000   30.4250   47.3300 C   0  0  0  0  0  0  0  0  0  0  0  0
   46.0950   31.2840   46.4140 N   0  0  0  0  0  0  0  0  0  0  0  0
   46.3930   32.5810   46.3910 C   0  0  0  0  0  0  0  0  0  0  0  0
   47.2260   33.0210   47.3220 N   0  0  0  0  0  0  0  0  0  0  0  0
   45.9530   33.6510   45.4920 C   0  0  0  0  0  0  0  0  0  0  0  0
   44.9680   34.5320   45.7720 N   0  0  0  0  0  0  0  0  0  0  0  0
   44.5370   35.5140   45.0010 C   0  0  0  0  0  0  0  0  0  0  0  0
   45.1200   35.6900   43.7840 N   0  0  0  0  0  0  0  0  0  0  0  0
   46.1140   34.8850   43.3770 C   0  0  0  0  0  0  0  0  0  0  0  0
   46.6980   35.0780   42.1340 C   0  0  0  0  0  0  0  0  0  0  0  0
   47.7150   34.2640   41.7010 C   0  0  0  0  0  0  0  0  0  0  0  0
   48.1260   33.2560   42.5450 C   0  0  0  0  0  0  0  0  0  0  0  0
   47.5100   33.1070   43.7730 C   0  0  0  0  0  0  0  0  0  0  0  0
   46.4890   33.8940   44.2520 C   0  0  0  0  0  0  0  0  0  0  0  0
   44.6420   29.3300   49.0410 F   0  0  0  0  0  0  0  0  0  0  0  0
   45.1990   28.5530   48.0510 C   0  0  0  0  0  0  0  0  0  0  0  0
   46.1590   29.0510   47.1930 C   0  0  0  0  0  0  0  0  0  0  0  0
   46.5600   28.0980   46.3000 C   0  0  0  0  0  0  0  0  0  0  0  0
   46.1130   26.8020   46.2080 C   0  0  0  0  0  0  0  0  0  0  0  0
   45.1530   26.3850   47.1030 C   0  0  0  0  0  0  0  0  0  0  0  0
   44.6980   27.2680   48.0270 C   0  0  0  0  0  0  0  0  0  0  0  0
   48.0260   30.0700   49.2660 N   0  0  0  0  0  0  0  0  0  0  0  0
   48.4461   32.6792   48.9989 H   0  0  0  0  0  0  0  0  0  0  0  0
   43.7242   36.1754   45.3355 H   0  0  0  0  0  0  0  0  0  0  0  0
   46.3419   35.8933   41.4872 H   0  0  0  0  0  0  0  0  0  0  0  0
   48.1841   34.4112   40.7170 H   0  0  0  0  0  0  0  0  0  0  0  0
   48.9368   32.5761   42.2444 H   0  0  0  0  0  0  0  0  0  0  0  0
   47.8655   32.2920   44.4205 H   0  0  0  0  0  0  0  0  0  0  0  0
   47.3271   28.4025   45.5728 H   0  0  0  0  0  0  0  0  0  0  0  0
   46.5098   26.1185   45.4429 H   0  0  0  0  0  0  0  0  0  0  0  0
   44.7631   25.3570   47.0694 H   0  0  0  0  0  0  0  0  0  0  0  0
   43.9323   26.9604   48.7544 H   0  0  0  0  0  0  0  0  0  0  0  0
   47.8030   29.0648   49.2920 H   0  0  0  0  0  0  0  0  0  0  0  0
   48.6680   30.4733   49.9632 H   0  0  0  0  0  0  0  0  0  0  0  0
  1  2  2  0
  2 24  1  0
  3  2  1  0
  4  3  2  0
  5  4  1  0
  5  6  2  0
  6  1  1  0
  7  8  2  0
  7  5  1  0
  9  8  1  0
 10  9  2  0
 11 10  1  0
 11 16  2  0
 12 11  1  0
 13 12  2  0
 13 14  1  0
 14 15  2  0
 15 16  1  0
 16  7  1  0
 18 17  1  0
 19  3  1  0
 19 18  2  0
 20 19  1  0
 21 20  2  0
 21 22  1  0
 22 23  2  0
 23 18  1  0
  1 25  1  0
  9 26  1  0
 12 27  1  0
 13 28  1  0
 14 29  1  0
 15 30  1  0
 20 31  1  0
 21 32  1  0
 22 33  1  0
 23 34  1  0
 24 35  1  0
 24 36  1  0
M  ISO  8  25  14  26  14  27  14  28  14  29  14  30  14  31  14  32  14
M  ISO  2  33  14  34  14
M  END
>  <minimizedAffinity>  (1) 
-6.53423929

>  <minimizedRMSD>  (1) 
0.331791967

$$$$
