
     RDKit          3D

 42 44  0  0  0  0  0  0  0  0999 V2000
   46.3360   31.7310   46.9710 C   0  0  0  0  0  0  0  0  0  0  0  0
   46.3240   32.4690   48.1600 C   0  0  0  0  0  0  0  0  0  0  0  0
   45.7200   32.0270   49.3070 C   0  0  0  0  0  0  0  0  0  0  0  0
   45.1230   30.8140   49.2300 C   0  0  0  0  0  0  0  0  0  0  0  0
   45.1400   30.0800   48.0530 C   0  0  0  0  0  0  0  0  0  0  0  0
   45.7350   30.4900   46.9080 C   0  0  0  0  0  0  0  0  0  0  0  0
   45.5630   29.2830   46.0720 C   0  0  0  0  0  0  0  0  0  0  0  0
   46.2840   28.0580   46.6320 C   0  0  0  0  0  0  0  0  0  0  0  0
   46.1380   27.0050   45.5440 C   0  0  0  0  0  0  0  0  0  0  0  0
   44.7700   26.4200   45.5420 C   0  0  0  0  0  0  0  0  0  0  0  0
   43.8990   27.3980   46.2860 C   0  0  0  0  0  0  0  0  0  0  0  0
   44.1250   28.8240   45.9720 C   0  0  0  0  0  0  0  0  0  0  0  0
   46.8000   32.2000   45.6480 C   0  0  0  0  0  0  0  0  0  0  0  0
   45.7370   32.2350   44.6150 C   0  0  0  0  0  0  0  0  0  0  0  0
   44.7340   35.7680   44.8760 C   0  0  0  0  0  0  0  0  0  0  0  0
   45.0500   36.2670   43.5960 C   0  0  0  0  0  0  0  0  0  0  0  0
   45.5900   35.3650   42.6990 C   0  0  0  0  0  0  0  0  0  0  0  0
   45.7930   34.1000   43.0540 N   0  0  0  0  0  0  0  0  0  0  0  0
   45.4680   33.6750   44.3080 C   0  0  0  0  0  0  0  0  0  0  0  0
   44.9500   34.4830   45.2040 N   0  0  0  0  0  0  0  0  0  0  0  0
   46.8227   33.4494   48.1740 H   0  0  0  0  0  0  0  0  0  0  0  0
   45.7199   32.6205   50.2332 H   0  0  0  0  0  0  0  0  0  0  0  0
   44.6160   30.4037   50.1158 H   0  0  0  0  0  0  0  0  0  0  0  0
   44.6375   29.1015   48.0497 H   0  0  0  0  0  0  0  0  0  0  0  0
   45.9688   29.6064   45.1021 H   0  0  0  0  0  0  0  0  0  0  0  0
   47.3449   28.2816   46.8179 H   0  0  0  0  0  0  0  0  0  0  0  0
   45.8659   27.7282   47.5945 H   0  0  0  0  0  0  0  0  0  0  0  0
   46.3308   27.4703   44.5661 H   0  0  0  0  0  0  0  0  0  0  0  0
   46.8612   26.1995   45.7394 H   0  0  0  0  0  0  0  0  0  0  0  0
   44.4093   26.2950   44.5104 H   0  0  0  0  0  0  0  0  0  0  0  0
   44.7558   25.4270   46.0151 H   0  0  0  0  0  0  0  0  0  0  0  0
   42.8502   27.1624   46.0523 H   0  0  0  0  0  0  0  0  0  0  0  0
   44.1560   27.2804   47.3491 H   0  0  0  0  0  0  0  0  0  0  0  0
   43.5258   29.4260   46.6710 H   0  0  0  0  0  0  0  0  0  0  0  0
   43.8338   28.9558   44.9195 H   0  0  0  0  0  0  0  0  0  0  0  0
   47.2041   33.2165   45.7633 H   0  0  0  0  0  0  0  0  0  0  0  0
   47.5569   31.4806   45.3022 H   0  0  0  0  0  0  0  0  0  0  0  0
   46.0752   31.7127   43.7079 H   0  0  0  0  0  0  0  0  0  0  0  0
   44.8256   31.7347   44.9743 H   0  0  0  0  0  0  0  0  0  0  0  0
   44.3000   36.4472   45.6246 H   0  0  0  0  0  0  0  0  0  0  0  0
   44.8759   37.3189   43.3255 H   0  0  0  0  0  0  0  0  0  0  0  0
   45.8538   35.6962   41.6837 H   0  0  0  0  0  0  0  0  0  0  0  0
  1  2  2  0
  2  3  1  0
  4  3  2  0
  5  4  1  0
  6  1  1  0
  6  5  2  0
  7  8  1  0
  7  6  1  0
  9  8  1  0
 10  9  1  0
 10 11  1  0
 12  7  1  0
 12 11  1  0
 13  1  1  0
 14 13  1  0
 15 20  2  0
 16 15  1  0
 17 18  1  0
 17 16  2  0
 18 19  2  0
 19 14  1  0
 19 20  1  0
  2 21  1  0
  3 22  1  0
  4 23  1  0
  5 24  1  0
  7 25  1  0
  8 26  1  0
  8 27  1  0
  9 28  1  0
  9 29  1  0
 10 30  1  0
 10 31  1  0
 11 32  1  0
 11 33  1  0
 12 34  1  0
 12 35  1  0
 13 36  1  0
 13 37  1  0
 14 38  1  0
 14 39  1  0
 15 40  1  0
 16 41  1  0
 17 42  1  0
M  ISO  8  21  14  22  14  23  14  24  14  25  13  26  13  27  13  28  13
M  ISO  8  29  13  30  13  31  13  32  13  33  13  34  13  35  13  36   8
M  ISO  6  37   8  38   8  39   8  40  14  41  14  42  14
M  END
>  <minimizedAffinity>  (1) 
-5.05540895

>  <minimizedRMSD>  (1) 
1.09094501

$$$$
