
     RDKit          3D

 36 38  0  0  0  0  0  0  0  0999 V2000
   46.2650   32.0790   47.3030 C   0  0  0  0  0  0  0  0  0  0  0  0
   45.1480   32.2950   48.0900 C   0  0  0  0  0  0  0  0  0  0  0  0
   44.6230   31.3830   48.9610 C   0  0  0  0  0  0  0  0  0  0  0  0
   45.2610   30.1740   49.0490 C   0  0  0  0  0  0  0  0  0  0  0  0
   46.3890   29.9430   48.2630 C   0  0  0  0  0  0  0  0  0  0  0  0
   46.9090   30.8800   47.3850 C   0  0  0  0  0  0  0  0  0  0  0  0
   47.5360   29.7160   44.7300 F   0  0  0  0  0  0  0  0  0  0  0  0
   48.4850   29.5770   45.6830 C   0  0  0  0  0  0  0  0  0  0  0  0
   48.0560   30.1390   46.8630 C   0  0  0  0  0  0  0  0  0  0  0  0
   48.9270   30.0480   47.9700 C   0  0  0  0  0  0  0  0  0  0  0  0
   50.1690   29.4210   47.8840 C   0  0  0  0  0  0  0  0  0  0  0  0
   50.5750   28.8630   46.6700 C   0  0  0  0  0  0  0  0  0  0  0  0
   49.7070   28.9650   45.6070 C   0  0  0  0  0  0  0  0  0  0  0  0
   46.9020   32.9880   46.3270 C   0  0  0  0  0  0  0  0  0  0  0  0
   46.3310   32.7620   44.9330 C   0  0  0  0  0  0  0  0  0  0  0  0
   44.5030   35.9400   44.7240 C   0  0  0  0  0  0  0  0  0  0  0  0
   44.8870   36.4310   43.4500 C   0  0  0  0  0  0  0  0  0  0  0  0
   45.7900   35.6430   42.7200 C   0  0  0  0  0  0  0  0  0  0  0  0
   46.2630   34.4730   43.2210 N   0  0  0  0  0  0  0  0  0  0  0  0
   45.8310   34.0820   44.4630 C   0  0  0  0  0  0  0  0  0  0  0  0
   44.9890   34.7740   45.1960 N   0  0  0  0  0  0  0  0  0  0  0  0
   44.6468   33.2708   48.0086 H   0  0  0  0  0  0  0  0  0  0  0  0
   43.7305   31.6087   49.5630 H   0  0  0  0  0  0  0  0  0  0  0  0
   44.8882   29.3956   49.7309 H   0  0  0  0  0  0  0  0  0  0  0  0
   46.8914   28.9678   48.3440 H   0  0  0  0  0  0  0  0  0  0  0  0
   48.6161   30.4854   48.9302 H   0  0  0  0  0  0  0  0  0  0  0  0
   50.8243   29.3662   48.7658 H   0  0  0  0  0  0  0  0  0  0  0  0
   51.5490   28.3623   46.5676 H   0  0  0  0  0  0  0  0  0  0  0  0
   50.0119   28.5309   44.6434 H   0  0  0  0  0  0  0  0  0  0  0  0
   46.7174   34.0295   46.6289 H   0  0  0  0  0  0  0  0  0  0  0  0
   47.9828   32.7843   46.3052 H   0  0  0  0  0  0  0  0  0  0  0  0
   47.1148   32.3897   44.2569 H   0  0  0  0  0  0  0  0  0  0  0  0
   45.5248   32.0138   44.9495 H   0  0  0  0  0  0  0  0  0  0  0  0
   43.7973   36.5197   45.3370 H   0  0  0  0  0  0  0  0  0  0  0  0
   44.4971   37.3805   43.0545 H   0  0  0  0  0  0  0  0  0  0  0  0
   46.1200   35.9786   41.7258 H   0  0  0  0  0  0  0  0  0  0  0  0
  1  6  1  0
  1  2  2  0
  2  3  1  0
  3  4  2  0
  5  4  1  0
  6  5  2  0
  7  8  1  0
  8  9  2  0
  9  6  1  0
  9 10  1  0
 11 10  2  0
 12 11  1  0
 13  8  1  0
 13 12  2  0
 14  1  1  0
 15 14  1  0
 16 21  2  0
 17 16  1  0
 18 19  1  0
 18 17  2  0
 19 20  2  0
 20 15  1  0
 20 21  1  0
  2 22  1  0
  3 23  1  0
  4 24  1  0
  5 25  1  0
 10 26  1  0
 11 27  1  0
 12 28  1  0
 13 29  1  0
 14 30  1  0
 14 31  1  0
 15 32  1  0
 15 33  1  0
 16 34  1  0
 17 35  1  0
 18 36  1  0
M  ISO  8  22  14  23  14  24  14  25  14  26  14  27  14  28  14  29  14
M  ISO  7  30   8  31   8  32   8  33   8  34  14  35  14  36  14
M  END
>  <minimizedAffinity>  (1) 
-5.04003811

>  <minimizedRMSD>  (1) 
2.14808869

$$$$
