
     RDKit          3D

 44 47  0  0  0  0  0  0  0  0999 V2000
   47.4660   32.0500   47.8960 C   0  0  0  0  0  0  0  0  0  0  0  0
   46.9800   30.7610   47.9340 C   0  0  0  0  0  0  0  0  0  0  0  0
   46.0110   30.4650   47.0370 C   0  0  0  0  0  0  0  0  0  0  0  0
   45.5760   31.3770   46.1670 N   0  0  0  0  0  0  0  0  0  0  0  0
   46.0530   32.6360   46.1120 C   0  0  0  0  0  0  0  0  0  0  0  0
   47.0090   32.9190   47.0270 N   0  0  0  0  0  0  0  0  0  0  0  0
   45.4180   29.2010   47.0140 N   0  0  0  0  0  0  0  0  0  0  0  0
   44.1860   28.8630   46.2730 C   0  0  0  0  0  0  0  0  0  0  0  0
   44.0580   27.3630   46.3540 C   0  0  0  0  0  0  0  0  0  0  0  0
   44.7640   27.0390   47.6410 C   0  0  0  0  0  0  0  0  0  0  0  0
   45.8870   28.0300   47.6930 C   0  0  0  0  0  0  0  0  0  0  0  0
   45.7490   33.7820   45.2780 C   0  0  0  0  0  0  0  0  0  0  0  0
   44.8840   34.7410   45.6640 N   0  0  0  0  0  0  0  0  0  0  0  0
   44.5530   35.8060   44.9290 C   0  0  0  0  0  0  0  0  0  0  0  0
   45.1050   35.9670   43.7030 N   0  0  0  0  0  0  0  0  0  0  0  0
   45.9840   35.0610   43.2230 C   0  0  0  0  0  0  0  0  0  0  0  0
   46.4990   35.2310   41.9740 C   0  0  0  0  0  0  0  0  0  0  0  0
   47.3630   34.3040   41.4580 C   0  0  0  0  0  0  0  0  0  0  0  0
   47.6800   33.2120   42.2570 C   0  0  0  0  0  0  0  0  0  0  0  0
   47.1360   33.0930   43.5030 C   0  0  0  0  0  0  0  0  0  0  0  0
   46.2730   33.9960   44.0380 C   0  0  0  0  0  0  0  0  0  0  0  0
   47.5860   31.8330   44.1740 C   0  0  0  0  0  0  0  0  0  0  0  0
   48.5580   31.0350   43.2390 C   0  0  0  0  0  0  0  0  0  0  0  0
   47.5710   29.8210   48.7760 N   0  0  0  0  0  0  0  0  0  0  0  0
   48.2494   32.3545   48.6056 H   0  0  0  0  0  0  0  0  0  0  0  0
   44.2691   29.1845   45.2243 H   0  0  0  0  0  0  0  0  0  0  0  0
   43.3060   29.3685   46.6975 H   0  0  0  0  0  0  0  0  0  0  0  0
   43.0022   27.0567   46.3930 H   0  0  0  0  0  0  0  0  0  0  0  0
   44.4798   26.8416   45.4820 H   0  0  0  0  0  0  0  0  0  0  0  0
   44.0894   27.1659   48.5006 H   0  0  0  0  0  0  0  0  0  0  0  0
   45.1143   25.9971   47.6830 H   0  0  0  0  0  0  0  0  0  0  0  0
   46.7760   27.6259   47.1867 H   0  0  0  0  0  0  0  0  0  0  0  0
   46.1745   28.2561   48.7304 H   0  0  0  0  0  0  0  0  0  0  0  0
   43.8377   36.5464   45.3165 H   0  0  0  0  0  0  0  0  0  0  0  0
   46.2204   36.1137   41.3798 H   0  0  0  0  0  0  0  0  0  0  0  0
   47.7898   34.4185   40.4507 H   0  0  0  0  0  0  0  0  0  0  0  0
   48.3711   32.4417   41.8842 H   0  0  0  0  0  0  0  0  0  0  0  0
   48.1081   32.0863   45.1085 H   0  0  0  0  0  0  0  0  0  0  0  0
   46.7061   31.2094   44.3905 H   0  0  0  0  0  0  0  0  0  0  0  0
   49.2637   30.4557   43.8525 H   0  0  0  0  0  0  0  0  0  0  0  0
   47.9764   30.3504   42.6041 H   0  0  0  0  0  0  0  0  0  0  0  0
   49.1162   31.7388   42.6041 H   0  0  0  0  0  0  0  0  0  0  0  0
   47.2094   28.8570   48.8060 H   0  0  0  0  0  0  0  0  0  0  0  0
   48.3695   30.0902   49.3684 H   0  0  0  0  0  0  0  0  0  0  0  0
  1  2  2  0
  2 24  1  0
  3  2  1  0
  4  3  2  0
  5  4  1  0
  5  6  2  0
  6  1  1  0
  7  3  1  0
  7 11  1  0
  8  9  1  0
  8  7  1  0
  9 10  1  0
 10 11  1  0
 12 13  2  0
 12  5  1  0
 14 13  1  0
 15 14  2  0
 16 15  1  0
 16 21  2  0
 17 16  1  0
 18 17  2  0
 18 19  1  0
 19 20  2  0
 20 21  1  0
 20 22  1  0
 21 12  1  0
 23 22  1  0
  1 25  1  0
  8 26  1  0
  8 27  1  0
  9 28  1  0
  9 29  1  0
 10 30  1  0
 10 31  1  0
 11 32  1  0
 11 33  1  0
 14 34  1  0
 17 35  1  0
 18 36  1  0
 19 37  1  0
 22 38  1  0
 22 39  1  0
 23 40  1  0
 23 41  1  0
 23 42  1  0
 24 43  1  0
 24 44  1  0
M  ISO  8  25  14  26  13  27  13  28  13  29  13  30  13  31  13  32  13
M  ISO  8  33  13  34  14  35  14  36  14  37  14  38   8  39   8  40   8
M  ISO  2  41   8  42   8
M  END
>  <minimizedAffinity>  (1) 
-6.36760759

>  <minimizedRMSD>  (1) 
0.525327384

$$$$
