
     RDKit          3D

 36 38  0  0  0  0  0  0  0  0999 V2000
   46.3000   32.0490   47.2880 C   0  0  0  0  0  0  0  0  0  0  0  0
   45.1660   32.2760   48.0600 C   0  0  0  0  0  0  0  0  0  0  0  0
   44.6080   31.3460   48.9000 C   0  0  0  0  0  0  0  0  0  0  0  0
   45.2080   30.1150   48.9790 C   0  0  0  0  0  0  0  0  0  0  0  0
   46.3460   29.8910   48.2050 C   0  0  0  0  0  0  0  0  0  0  0  0
   46.9100   30.8410   47.3570 C   0  0  0  0  0  0  0  0  0  0  0  0
   48.1070   30.1330   46.9100 C   0  0  0  0  0  0  0  0  0  0  0  0
   49.1320   29.8430   47.8050 C   0  0  0  0  0  0  0  0  0  0  0  0
   50.3100   29.1750   47.5480 C   0  0  0  0  0  0  0  0  0  0  0  0
   50.4310   28.7750   46.2510 C   0  0  0  0  0  0  0  0  0  0  0  0
   49.4870   29.0040   45.2800 C   0  0  0  0  0  0  0  0  0  0  0  0
   48.3330   29.6770   45.6040 C   0  0  0  0  0  0  0  0  0  0  0  0
   46.9380   32.9580   46.3270 C   0  0  0  0  0  0  0  0  0  0  0  0
   46.4430   32.7490   44.9280 C   0  0  0  0  0  0  0  0  0  0  0  0
   44.5150   35.8900   44.7310 C   0  0  0  0  0  0  0  0  0  0  0  0
   44.8990   36.3870   43.4530 C   0  0  0  0  0  0  0  0  0  0  0  0
   45.8090   35.6360   42.7360 C   0  0  0  0  0  0  0  0  0  0  0  0
   46.2840   34.5020   43.2500 N   0  0  0  0  0  0  0  0  0  0  0  0
   45.8800   34.0720   44.4780 C   0  0  0  0  0  0  0  0  0  0  0  0
   45.0190   34.7400   45.2110 N   0  0  0  0  0  0  0  0  0  0  0  0
   44.6861   33.2635   47.9929 H   0  0  0  0  0  0  0  0  0  0  0  0
   43.7097   31.5796   49.4903 H   0  0  0  0  0  0  0  0  0  0  0  0
   44.8037   29.3284   49.6331 H   0  0  0  0  0  0  0  0  0  0  0  0
   46.8275   28.9040   48.2680 H   0  0  0  0  0  0  0  0  0  0  0  0
   48.9850   30.1873   48.8393 H   0  0  0  0  0  0  0  0  0  0  0  0
   51.0762   28.9838   48.3137 H   0  0  0  0  0  0  0  0  0  0  0  0
   51.3441   28.2335   45.9629 H   0  0  0  0  0  0  0  0  0  0  0  0
   49.6531   28.6517   44.2513 H   0  0  0  0  0  0  0  0  0  0  0  0
   47.5761   29.8603   44.8272 H   0  0  0  0  0  0  0  0  0  0  0  0
   46.7246   33.9948   46.6261 H   0  0  0  0  0  0  0  0  0  0  0  0
   48.0182   32.7505   46.3352 H   0  0  0  0  0  0  0  0  0  0  0  0
   47.2718   32.4446   44.2720 H   0  0  0  0  0  0  0  0  0  0  0  0
   45.6824   31.9554   44.8868 H   0  0  0  0  0  0  0  0  0  0  0  0
   43.7928   36.4574   45.3364 H   0  0  0  0  0  0  0  0  0  0  0  0
   44.4891   37.3269   43.0549 H   0  0  0  0  0  0  0  0  0  0  0  0
   46.1411   35.9729   41.7429 H   0  0  0  0  0  0  0  0  0  0  0  0
  1  6  1  0
  1  2  2  0
  2  3  1  0
  3  4  2  0
  5  4  1  0
  6  5  2  0
  7  6  1  0
  7  8  2  0
  9  8  1  0
 10  9  2  0
 11 12  2  0
 11 10  1  0
 12  7  1  0
 13  1  1  0
 14 13  1  0
 15 20  2  0
 16 15  1  0
 17 18  1  0
 17 16  2  0
 18 19  2  0
 19 14  1  0
 19 20  1  0
  2 21  1  0
  3 22  1  0
  4 23  1  0
  5 24  1  0
  8 25  1  0
  9 26  1  0
 10 27  1  0
 11 28  1  0
 12 29  1  0
 13 30  1  0
 13 31  1  0
 14 32  1  0
 14 33  1  0
 15 34  1  0
 16 35  1  0
 17 36  1  0
M  ISO  8  21  14  22  14  23  14  24  14  25  14  26  14  27  14  28  14
M  ISO  8  29  14  30   8  31   8  32   8  33   8  34  14  35  14  36  14
M  END
>  <minimizedAffinity>  (1) 
-4.98665285

>  <minimizedRMSD>  (1) 
2.05596828

$$$$
