
     RDKit          3D

 50 54  0  0  0  0  0  0  0  0999 V2000
   45.7120   33.8160   45.2870 C   0  0  0  0  0  0  0  0  0  0  0  0
   44.8350   34.7600   45.6580 N   0  0  0  0  0  0  0  0  0  0  0  0
   44.5050   35.8220   44.9310 C   0  0  0  0  0  0  0  0  0  0  0  0
   45.0710   36.0110   43.7120 N   0  0  0  0  0  0  0  0  0  0  0  0
   45.9550   35.1390   43.2400 C   0  0  0  0  0  0  0  0  0  0  0  0
   46.5430   35.3220   41.9970 C   0  0  0  0  0  0  0  0  0  0  0  0
   47.4650   34.4330   41.4890 C   0  0  0  0  0  0  0  0  0  0  0  0
   47.7810   33.3480   42.2690 C   0  0  0  0  0  0  0  0  0  0  0  0
   47.1660   33.2030   43.5130 C   0  0  0  0  0  0  0  0  0  0  0  0
   46.2600   34.0520   44.0420 C   0  0  0  0  0  0  0  0  0  0  0  0
   47.5870   32.0290   47.8130 C   0  0  0  0  0  0  0  0  0  0  0  0
   47.0720   30.7280   47.8320 C   0  0  0  0  0  0  0  0  0  0  0  0
   46.0460   30.4550   46.9700 C   0  0  0  0  0  0  0  0  0  0  0  0
   45.5910   31.4130   46.1650 N   0  0  0  0  0  0  0  0  0  0  0  0
   46.0590   32.6430   46.1240 C   0  0  0  0  0  0  0  0  0  0  0  0
   47.0710   32.9360   46.9700 N   0  0  0  0  0  0  0  0  0  0  0  0
   45.4800   29.2020   46.9620 N   0  0  0  0  0  0  0  0  0  0  0  0
   44.2550   28.8450   46.1930 C   0  0  0  0  0  0  0  0  0  0  0  0
   44.1600   27.3510   46.2460 C   0  0  0  0  0  0  0  0  0  0  0  0
   44.8770   27.0010   47.4960 C   0  0  0  0  0  0  0  0  0  0  0  0
   45.9270   28.0430   47.6670 C   0  0  0  0  0  0  0  0  0  0  0  0
   47.6660   29.8270   48.6800 N   0  0  0  0  0  0  0  0  0  0  0  0
   50.7320   34.0630   42.5750 Cl  0  0  0  0  0  0  0  0  0  0  0  0
   50.1210   32.6220   41.7640 C   0  0  0  0  0  0  0  0  0  0  0  0
   48.7550   32.4320   41.7040 C   0  0  0  0  0  0  0  0  0  0  0  0
   48.2380   31.3010   41.0680 C   0  0  0  0  0  0  0  0  0  0  0  0
   49.1430   30.4140   40.5220 C   0  0  0  0  0  0  0  0  0  0  0  0
   50.5080   30.6060   40.5830 C   0  0  0  0  0  0  0  0  0  0  0  0
   51.5330   29.4030   39.8510 Cl  0  0  0  0  0  0  0  0  0  0  0  0
   51.0290   31.7370   41.2190 C   0  0  0  0  0  0  0  0  0  0  0  0
   47.6160   32.0080   44.1610 N   0  0  0  0  0  0  0  0  0  0  0  0
   43.7737   36.5475   45.3168 H   0  0  0  0  0  0  0  0  0  0  0  0
   46.2650   36.2027   41.3994 H   0  0  0  0  0  0  0  0  0  0  0  0
   47.9273   34.5856   40.5026 H   0  0  0  0  0  0  0  0  0  0  0  0
   48.4113   32.3067   48.4863 H   0  0  0  0  0  0  0  0  0  0  0  0
   44.3439   29.1863   45.1511 H   0  0  0  0  0  0  0  0  0  0  0  0
   43.3586   29.3226   46.6153 H   0  0  0  0  0  0  0  0  0  0  0  0
   43.1102   27.0254   46.2909 H   0  0  0  0  0  0  0  0  0  0  0  0
   44.5869   26.8634   45.3571 H   0  0  0  0  0  0  0  0  0  0  0  0
   44.1844   27.0113   48.3505 H   0  0  0  0  0  0  0  0  0  0  0  0
   45.3125   25.9922   47.4440 H   0  0  0  0  0  0  0  0  0  0  0  0
   46.8814   27.6905   47.2488 H   0  0  0  0  0  0  0  0  0  0  0  0
   46.0890   28.2678   48.7315 H   0  0  0  0  0  0  0  0  0  0  0  0
   47.3196   28.8581   48.7267 H   0  0  0  0  0  0  0  0  0  0  0  0
   48.4582   30.1197   49.2696 H   0  0  0  0  0  0  0  0  0  0  0  0
   47.1541   31.1247   41.0050 H   0  0  0  0  0  0  0  0  0  0  0  0
   48.7598   29.5153   40.0164 H   0  0  0  0  0  0  0  0  0  0  0  0
   52.1129   31.9133   41.2821 H   0  0  0  0  0  0  0  0  0  0  0  0
   47.2525   31.7588   45.0920 H   0  0  0  0  0  0  0  0  0  0  0  0
   48.3032   31.3976   43.6961 H   0  0  0  0  0  0  0  0  0  0  0  0
  1  2  2  0
  1 15  1  0
  3  2  1  0
  4  3  2  0
  5  4  1  0
  5 10  2  0
  6  5  1  0
  7  6  2  0
  7  8  1  0
  8  9  2  0
  9 10  1  0
  9 31  1  0
 10  1  1  0
 11 12  2  0
 12 22  1  0
 13 12  1  0
 14 13  2  0
 15 14  1  0
 15 16  2  0
 16 11  1  0
 17 13  1  0
 17 21  1  0
 18 19  1  0
 18 17  1  0
 19 20  1  0
 20 21  1  0
 24 23  1  0
 25 24  2  0
 25  8  1  0
 26 25  1  0
 27 28  1  0
 27 26  2  0
 28 30  2  0
 29 28  1  0
 30 24  1  0
  3 32  1  0
  6 33  1  0
  7 34  1  0
 11 35  1  0
 18 36  1  0
 18 37  1  0
 19 38  1  0
 19 39  1  0
 20 40  1  0
 20 41  1  0
 21 42  1  0
 21 43  1  0
 22 44  1  0
 22 45  1  0
 26 46  1  0
 27 47  1  0
 30 48  1  0
 31 49  1  0
 31 50  1  0
M  ISO  8  32  14  33  14  34  14  35  14  36  13  37  13  38  13  39  13
M  ISO  7  40  13  41  13  42  13  43  13  46  14  47  14  48  14
M  END
>  <minimizedAffinity>  (1) 
-7.4312048

>  <minimizedRMSD>  (1) 
0.496990472

$$$$
