
     RDKit          3D

 49 53  0  0  0  0  0  0  0  0999 V2000
   45.7420   33.8250   45.1850 C   0  0  0  0  0  0  0  0  0  0  0  0
   44.8270   34.7660   45.4660 N   0  0  0  0  0  0  0  0  0  0  0  0
   44.5560   35.8190   44.7110 C   0  0  0  0  0  0  0  0  0  0  0  0
   45.2270   36.0070   43.5520 N   0  0  0  0  0  0  0  0  0  0  0  0
   46.1700   35.1350   43.1570 C   0  0  0  0  0  0  0  0  0  0  0  0
   46.8490   35.3260   41.9700 C   0  0  0  0  0  0  0  0  0  0  0  0
   47.7970   34.4450   41.5570 C   0  0  0  0  0  0  0  0  0  0  0  0
   48.0650   33.3440   42.3630 C   0  0  0  0  0  0  0  0  0  0  0  0
   47.3610   33.1990   43.5400 C   0  0  0  0  0  0  0  0  0  0  0  0
   46.4060   34.0580   43.9890 C   0  0  0  0  0  0  0  0  0  0  0  0
   47.4450   32.0790   47.8600 C   0  0  0  0  0  0  0  0  0  0  0  0
   46.9210   30.7840   47.8750 C   0  0  0  0  0  0  0  0  0  0  0  0
   45.9440   30.5010   46.9520 C   0  0  0  0  0  0  0  0  0  0  0  0
   45.5450   31.4390   46.0990 N   0  0  0  0  0  0  0  0  0  0  0  0
   46.0270   32.6630   46.0650 C   0  0  0  0  0  0  0  0  0  0  0  0
   46.9890   32.9690   46.9660 N   0  0  0  0  0  0  0  0  0  0  0  0
   45.3750   29.2490   46.9300 N   0  0  0  0  0  0  0  0  0  0  0  0
   44.1960   28.8890   46.1020 C   0  0  0  0  0  0  0  0  0  0  0  0
   44.1150   27.3850   46.1430 C   0  0  0  0  0  0  0  0  0  0  0  0
   44.7330   27.0540   47.4540 C   0  0  0  0  0  0  0  0  0  0  0  0
   45.7760   28.0920   47.6660 C   0  0  0  0  0  0  0  0  0  0  0  0
   47.4410   29.8930   48.7770 N   0  0  0  0  0  0  0  0  0  0  0  0
   49.0780   32.3900   41.9310 C   0  0  0  0  0  0  0  0  0  0  0  0
   50.4070   32.6860   41.7910 C   0  0  0  0  0  0  0  0  0  0  0  0
   51.3630   31.7760   41.3810 C   0  0  0  0  0  0  0  0  0  0  0  0
   50.9360   30.4960   41.1010 C   0  0  0  0  0  0  0  0  0  0  0  0
   49.6040   30.1740   41.2330 C   0  0  0  0  0  0  0  0  0  0  0  0
   48.7590   31.1180   41.6340 N   0  0  0  0  0  0  0  0  0  0  0  0
   47.7650   32.0320   44.2540 N   0  0  0  0  0  0  0  0  0  0  0  0
   43.7867   36.5395   45.0256 H   0  0  0  0  0  0  0  0  0  0  0  0
   46.6189   36.2047   41.3495 H   0  0  0  0  0  0  0  0  0  0  0  0
   48.3376   34.5983   40.6113 H   0  0  0  0  0  0  0  0  0  0  0  0
   48.2274   32.3672   48.5775 H   0  0  0  0  0  0  0  0  0  0  0  0
   44.3323   29.2380   45.0678 H   0  0  0  0  0  0  0  0  0  0  0  0
   43.2751   29.3563   46.4808 H   0  0  0  0  0  0  0  0  0  0  0  0
   43.0701   27.0438   46.1008 H   0  0  0  0  0  0  0  0  0  0  0  0
   44.6158   26.8999   45.2922 H   0  0  0  0  0  0  0  0  0  0  0  0
   43.9810   27.0932   48.2559 H   0  0  0  0  0  0  0  0  0  0  0  0
   45.1553   26.0384   47.4649 H   0  0  0  0  0  0  0  0  0  0  0  0
   46.7480   27.7302   47.2995 H   0  0  0  0  0  0  0  0  0  0  0  0
   45.8824   28.3265   48.7354 H   0  0  0  0  0  0  0  0  0  0  0  0
   47.0790   28.9295   48.8164 H   0  0  0  0  0  0  0  0  0  0  0  0
   48.1938   30.1868   49.4156 H   0  0  0  0  0  0  0  0  0  0  0  0
   50.7343   33.7112   42.0188 H   0  0  0  0  0  0  0  0  0  0  0  0
   52.4207   32.0615   41.2823 H   0  0  0  0  0  0  0  0  0  0  0  0
   51.6577   29.7334   40.7728 H   0  0  0  0  0  0  0  0  0  0  0  0
   49.2469   29.1574   41.0114 H   0  0  0  0  0  0  0  0  0  0  0  0
   47.3208   31.7992   45.1537 H   0  0  0  0  0  0  0  0  0  0  0  0
   48.5009   31.4222   43.8699 H   0  0  0  0  0  0  0  0  0  0  0  0
  1  2  2  0
  1 15  1  0
  3  2  1  0
  4  3  2  0
  5  4  1  0
  5 10  2  0
  6  5  1  0
  7  6  2  0
  7  8  1  0
  8  9  2  0
  9 10  1  0
  9 29  1  0
 10  1  1  0
 11 12  2  0
 12 22  1  0
 13 12  1  0
 14 13  2  0
 15 14  1  0
 15 16  2  0
 16 11  1  0
 17 13  1  0
 17 21  1  0
 18 19  1  0
 18 17  1  0
 19 20  1  0
 20 21  1  0
 23  8  1  0
 24 23  2  0
 25 24  1  0
 26 27  1  0
 26 25  2  0
 27 28  2  0
 28 23  1  0
  3 30  1  0
  6 31  1  0
  7 32  1  0
 11 33  1  0
 18 34  1  0
 18 35  1  0
 19 36  1  0
 19 37  1  0
 20 38  1  0
 20 39  1  0
 21 40  1  0
 21 41  1  0
 22 42  1  0
 22 43  1  0
 24 44  1  0
 25 45  1  0
 26 46  1  0
 27 47  1  0
 29 48  1  0
 29 49  1  0
M  ISO  8  30  14  31  14  32  14  33  14  34  13  35  13  36  13  37  13
M  ISO  8  38  13  39  13  40  13  41  13  44  14  45  14  46  14  47  14
M  END
>  <minimizedAffinity>  (1) 
-7.04636669

>  <minimizedRMSD>  (1) 
0.350054264

$$$$
