
     RDKit          3D

 42 45  0  0  0  0  0  0  0  0999 V2000
   47.4390   32.0640   47.8700 C   0  0  0  0  0  0  0  0  0  0  0  0
   46.9030   30.7730   47.9060 C   0  0  0  0  0  0  0  0  0  0  0  0
   45.9210   30.4880   47.0060 C   0  0  0  0  0  0  0  0  0  0  0  0
   45.5130   31.4250   46.1350 N   0  0  0  0  0  0  0  0  0  0  0  0
   46.0120   32.6490   46.0850 C   0  0  0  0  0  0  0  0  0  0  0  0
   46.9850   32.9530   46.9730 N   0  0  0  0  0  0  0  0  0  0  0  0
   45.3230   29.2500   46.9910 N   0  0  0  0  0  0  0  0  0  0  0  0
   44.1290   28.8980   46.1730 C   0  0  0  0  0  0  0  0  0  0  0  0
   43.9990   27.4080   46.2550 C   0  0  0  0  0  0  0  0  0  0  0  0
   44.6560   27.0720   47.5530 C   0  0  0  0  0  0  0  0  0  0  0  0
   45.7160   28.0950   47.7410 C   0  0  0  0  0  0  0  0  0  0  0  0
   45.7390   33.8030   45.1930 C   0  0  0  0  0  0  0  0  0  0  0  0
   44.8800   34.7830   45.4860 N   0  0  0  0  0  0  0  0  0  0  0  0
   44.6170   35.8260   44.7110 C   0  0  0  0  0  0  0  0  0  0  0  0
   45.2370   35.9580   43.5230 N   0  0  0  0  0  0  0  0  0  0  0  0
   46.1210   35.0430   43.1130 C   0  0  0  0  0  0  0  0  0  0  0  0
   46.7740   35.1660   41.8880 C   0  0  0  0  0  0  0  0  0  0  0  0
   47.6770   34.2440   41.4610 C   0  0  0  0  0  0  0  0  0  0  0  0
   47.9300   33.1690   42.2870 C   0  0  0  0  0  0  0  0  0  0  0  0
   47.2550   33.0860   43.5030 C   0  0  0  0  0  0  0  0  0  0  0  0
   46.3540   33.9810   43.9590 C   0  0  0  0  0  0  0  0  0  0  0  0
   47.6480   31.9090   44.2190 N   0  0  0  0  0  0  0  0  0  0  0  0
   48.8790   32.2190   41.8150 N   0  0  0  0  0  0  0  0  0  0  0  0
   47.4410   29.8780   48.7860 N   0  0  0  0  0  0  0  0  0  0  0  0
   48.2321   32.3507   48.5763 H   0  0  0  0  0  0  0  0  0  0  0  0
   44.2744   29.2124   45.1290 H   0  0  0  0  0  0  0  0  0  0  0  0
   43.2240   29.4029   46.5418 H   0  0  0  0  0  0  0  0  0  0  0  0
   42.9415   27.1052   46.2595 H   0  0  0  0  0  0  0  0  0  0  0  0
   44.4540   26.8903   45.3977 H   0  0  0  0  0  0  0  0  0  0  0  0
   43.9272   27.1187   48.3756 H   0  0  0  0  0  0  0  0  0  0  0  0
   45.0703   26.0530   47.5476 H   0  0  0  0  0  0  0  0  0  0  0  0
   46.6788   27.7136   47.3700 H   0  0  0  0  0  0  0  0  0  0  0  0
   45.8378   28.3420   48.8060 H   0  0  0  0  0  0  0  0  0  0  0  0
   43.8912   36.5847   45.0390 H   0  0  0  0  0  0  0  0  0  0  0  0
   46.5525   36.0334   41.2488 H   0  0  0  0  0  0  0  0  0  0  0  0
   48.1871   34.3514   40.4924 H   0  0  0  0  0  0  0  0  0  0  0  0
   47.2354   31.7049   45.1404 H   0  0  0  0  0  0  0  0  0  0  0  0
   48.3431   31.2669   43.8123 H   0  0  0  0  0  0  0  0  0  0  0  0
   49.1103   31.3943   42.3870 H   0  0  0  0  0  0  0  0  0  0  0  0
   49.3344   32.3563   40.9014 H   0  0  0  0  0  0  0  0  0  0  0  0
   47.0689   28.9189   48.8373 H   0  0  0  0  0  0  0  0  0  0  0  0
   48.2189   30.1620   49.3985 H   0  0  0  0  0  0  0  0  0  0  0  0
  1  2  2  0
  2 24  1  0
  3  2  1  0
  4  3  2  0
  5  4  1  0
  5  6  2  0
  6  1  1  0
  7  3  1  0
  7 11  1  0
  8  9  1  0
  8  7  1  0
  9 10  1  0
 10 11  1  0
 12 13  2  0
 12  5  1  0
 14 13  1  0
 15 14  2  0
 16 15  1  0
 16 21  2  0
 17 16  1  0
 18 17  2  0
 18 19  1  0
 19 20  2  0
 20 21  1  0
 20 22  1  0
 21 12  1  0
 23 19  1  0
  1 25  1  0
  8 26  1  0
  8 27  1  0
  9 28  1  0
  9 29  1  0
 10 30  1  0
 10 31  1  0
 11 32  1  0
 11 33  1  0
 14 34  1  0
 17 35  1  0
 18 36  1  0
 22 37  1  0
 22 38  1  0
 23 39  1  0
 23 40  1  0
 24 41  1  0
 24 42  1  0
M  ISO  8  25  14  26  13  27  13  28  13  29  13  30  13  31  13  32  13
M  ISO  4  33  13  34  14  35  14  36  14
M  END
>  <minimizedAffinity>  (1) 
-6.55509138

>  <minimizedRMSD>  (1) 
0.0233320128

$$$$
