
     RDKit          3D

 26 27  0  0  0  0  0  0  0  0999 V2000
   44.2500   33.0270   40.9430 Cl  0  0  0  0  0  0  0  0  0  0  0  0
   45.8440   33.6510   40.5480 C   0  0  0  0  0  0  0  0  0  0  0  0
   46.5600   34.4030   41.4340 C   0  0  0  0  0  0  0  0  0  0  0  0
   47.7900   34.8340   41.0110 C   0  0  0  0  0  0  0  0  0  0  0  0
   48.2970   34.5450   39.7810 C   0  0  0  0  0  0  0  0  0  0  0  0
   47.5730   33.7890   38.8910 C   0  0  0  0  0  0  0  0  0  0  0  0
   46.3400   33.3490   39.2980 C   0  0  0  0  0  0  0  0  0  0  0  0
   44.6710   36.0560   44.2590 C   0  0  0  0  0  0  0  0  0  0  0  0
   45.2240   35.8170   42.9910 C   0  0  0  0  0  0  0  0  0  0  0  0
   45.9750   34.6830   42.7360 C   0  0  0  0  0  0  0  0  0  0  0  0
   46.1460   33.8220   43.7800 N   0  0  0  0  0  0  0  0  0  0  0  0
   45.6150   34.0550   44.9940 C   0  0  0  0  0  0  0  0  0  0  0  0
   44.8900   35.1520   45.2350 N   0  0  0  0  0  0  0  0  0  0  0  0
   48.5870   35.6630   41.9780 C   0  0  0  0  0  0  0  0  0  0  0  0
   49.7800   34.9570   42.5050 C   0  0  0  0  0  0  0  0  0  0  0  0
   49.2921   34.9189   39.4981 H   0  0  0  0  0  0  0  0  0  0  0  0
   47.9666   33.5467   37.8928 H   0  0  0  0  0  0  0  0  0  0  0  0
   45.7327   32.7411   38.6113 H   0  0  0  0  0  0  0  0  0  0  0  0
   44.0733   36.9592   44.4516 H   0  0  0  0  0  0  0  0  0  0  0  0
   45.0570   36.5457   42.1841 H   0  0  0  0  0  0  0  0  0  0  0  0
   45.7806   33.3290   45.8037 H   0  0  0  0  0  0  0  0  0  0  0  0
   48.9198   36.5768   41.4640 H   0  0  0  0  0  0  0  0  0  0  0  0
   47.9336   35.8863   42.8342 H   0  0  0  0  0  0  0  0  0  0  0  0
   49.7578   34.9701   43.6047 H   0  0  0  0  0  0  0  0  0  0  0  0
   49.7761   33.9157   42.1506 H   0  0  0  0  0  0  0  0  0  0  0  0
   50.6910   35.4615   42.1506 H   0  0  0  0  0  0  0  0  0  0  0  0
  2  1  1  0
  2  3  2  0
  3 10  1  0
  4  3  1  0
  4 14  1  0
  5  4  2  0
  6  7  2  0
  6  5  1  0
  7  2  1  0
  8 13  2  0
  9  8  1  0
 10  9  2  0
 10 11  1  0
 11 12  2  0
 12 13  1  0
 14 15  1  0
  5 16  1  0
  6 17  1  0
  7 18  1  0
  8 19  1  0
  9 20  1  0
 12 21  1  0
 14 22  1  0
 14 23  1  0
 15 24  1  0
 15 25  1  0
 15 26  1  0
M  ISO  8  16  14  17  14  18  14  19  14  20  14  21  14  22   8  23   8
M  ISO  3  24   8  25   8  26   8
M  END
>  <minimizedAffinity>  (1) 
-5.24050522

>  <minimizedRMSD>  (1) 
0.829623044

$$$$
