
     RDKit          3D

 33 35  0  0  0  0  0  0  0  0999 V2000
   45.2830   35.3010   43.1200 Cl  0  0  0  0  0  0  0  0  0  0  0  0
   45.1620   34.5390   41.5600 C   0  0  0  0  0  0  0  0  0  0  0  0
   46.2670   34.1440   40.8810 C   0  0  0  0  0  0  0  0  0  0  0  0
   46.0650   33.5430   39.6460 C   0  0  0  0  0  0  0  0  0  0  0  0
   44.8210   33.3510   39.1230 C   0  0  0  0  0  0  0  0  0  0  0  0
   43.7130   33.7550   39.8140 C   0  0  0  0  0  0  0  0  0  0  0  0
   43.8990   34.3520   41.0450 C   0  0  0  0  0  0  0  0  0  0  0  0
   49.5480   35.7460   41.8850 C   0  0  0  0  0  0  0  0  0  0  0  0
   48.2860   35.5450   41.3120 C   0  0  0  0  0  0  0  0  0  0  0  0
   47.5760   34.3630   41.4720 C   0  0  0  0  0  0  0  0  0  0  0  0
   48.1930   33.4230   42.2220 N   0  0  0  0  0  0  0  0  0  0  0  0
   49.4030   33.6170   42.7720 C   0  0  0  0  0  0  0  0  0  0  0  0
   50.0720   34.7600   42.6070 N   0  0  0  0  0  0  0  0  0  0  0  0
   47.8320   31.8920   38.9460 C   0  0  0  0  0  0  0  0  0  0  0  0
   47.2290   33.1020   38.8810 C   0  0  0  0  0  0  0  0  0  0  0  0
   47.7670   34.0310   37.9860 C   0  0  0  0  0  0  0  0  0  0  0  0
   48.8580   33.7140   37.2140 C   0  0  0  0  0  0  0  0  0  0  0  0
   49.4740   32.4600   37.2870 C   0  0  0  0  0  0  0  0  0  0  0  0
   48.9260   31.5370   38.1870 C   0  0  0  0  0  0  0  0  0  0  0  0
   47.2000   30.7210   40.0440 S   0  0  0  0  0  0  0  0  0  0  0  0
   46.7580   29.4420   39.3410 O   0  0  0  0  0  0  0  0  0  0  0  0
   48.3710   30.2660   40.9070 O   0  0  0  0  0  0  0  0  0  0  0  0
   44.7083   32.8689   38.1407 H   0  0  0  0  0  0  0  0  0  0  0  0
   42.7037   33.6089   39.4018 H   0  0  0  0  0  0  0  0  0  0  0  0
   43.0241   34.6835   41.6235 H   0  0  0  0  0  0  0  0  0  0  0  0
   50.0902   36.6924   41.7419 H   0  0  0  0  0  0  0  0  0  0  0  0
   47.8411   36.3534   40.7132 H   0  0  0  0  0  0  0  0  0  0  0  0
   49.8538   32.8138   43.3734 H   0  0  0  0  0  0  0  0  0  0  0  0
   47.3111   35.0283   37.8988 H   0  0  0  0  0  0  0  0  0  0  0  0
   49.2584   34.4669   36.5192 H   0  0  0  0  0  0  0  0  0  0  0  0
   50.3476   32.2106   36.6668 H   0  0  0  0  0  0  0  0  0  0  0  0
   49.3666   30.5341   38.2873 H   0  0  0  0  0  0  0  0  0  0  0  0
   46.1462   31.2929   40.7067 H   0  0  0  0  0  0  0  0  0  0  0  0
  2  1  1  0
  3 10  1  0
  3  2  2  0
  4  3  1  0
  5  4  2  0
  5  6  1  0
  6  7  2  0
  7  2  1  0
  8 13  2  0
  9 10  2  0
  9  8  1  0
 10 11  1  0
 11 12  2  0
 13 12  1  0
 14 20  1  0
 15 14  2  0
 15  4  1  0
 16 15  1  0
 17 18  1  0
 17 16  2  0
 18 19  2  0
 19 14  1  0
 20 22  2  0
 21 20  2  0
  5 23  1  0
  6 24  1  0
  7 25  1  0
  8 26  1  0
  9 27  1  0
 12 28  1  0
 16 29  1  0
 17 30  1  0
 18 31  1  0
 19 32  1  0
 20 33  1  0
M  ISO  8  23  14  24  14  25  14  26  14  27  14  28  14  29  14  30  14
M  ISO  3  31  14  32  14  33  11
M  END
>  <minimizedAffinity>  (1) 
-4.58671999

>  <minimizedRMSD>  (1) 
5.43416786

$$$$
