
     RDKit          3D

 41 44  0  0  0  0  0  0  0  0999 V2000
   41.0450   35.4310   42.1130 Cl  0  0  0  0  0  0  0  0  0  0  0  0
   41.6940   34.7380   40.6390 C   0  0  0  0  0  0  0  0  0  0  0  0
   42.9920   34.3540   40.5500 C   0  0  0  0  0  0  0  0  0  0  0  0
   43.3830   33.8230   39.3360 C   0  0  0  0  0  0  0  0  0  0  0  0
   42.5500   33.6770   38.2750 C   0  0  0  0  0  0  0  0  0  0  0  0
   41.2350   34.0730   38.3870 C   0  0  0  0  0  0  0  0  0  0  0  0
   40.8170   34.6000   39.5680 C   0  0  0  0  0  0  0  0  0  0  0  0
   44.7830   33.3970   39.2050 C   0  0  0  0  0  0  0  0  0  0  0  0
   45.0920   32.5260   38.1510 C   0  0  0  0  0  0  0  0  0  0  0  0
   46.4270   32.1920   38.1210 C   0  0  0  0  0  0  0  0  0  0  0  0
   47.4060   32.6130   38.9800 C   0  0  0  0  0  0  0  0  0  0  0  0
   46.9990   33.4730   39.9890 C   0  0  0  0  0  0  0  0  0  0  0  0
   45.7050   33.8310   40.0620 N   0  0  0  0  0  0  0  0  0  0  0  0
   47.9440   33.9530   40.9140 N   0  0  0  0  0  0  0  0  0  0  0  0
   48.4850   35.3050   40.9090 C   0  0  0  0  0  0  0  0  0  0  0  0
   49.5340   35.3110   42.0140 C   0  0  0  0  0  0  0  0  0  0  0  0
   48.8720   34.3290   42.9880 C   0  0  0  0  0  0  0  0  0  0  0  0
   48.5310   33.1960   42.0130 C   0  0  0  0  0  0  0  0  0  0  0  0
   45.2730   35.8600   43.1560 C   0  0  0  0  0  0  0  0  0  0  0  0
   44.4420   35.7210   42.0460 C   0  0  0  0  0  0  0  0  0  0  0  0
   43.8560   34.5220   41.6970 C   0  0  0  0  0  0  0  0  0  0  0  0
   44.1460   33.4640   42.5200 N   0  0  0  0  0  0  0  0  0  0  0  0
   44.9490   33.6070   43.5920 C   0  0  0  0  0  0  0  0  0  0  0  0
   45.5060   34.7710   43.9140 N   0  0  0  0  0  0  0  0  0  0  0  0
   42.9213   33.2462   37.3334 H   0  0  0  0  0  0  0  0  0  0  0  0
   40.5403   33.9652   37.5410 H   0  0  0  0  0  0  0  0  0  0  0  0
   39.7709   34.9218   39.6785 H   0  0  0  0  0  0  0  0  0  0  0  0
   44.3511   32.1516   37.4292 H   0  0  0  0  0  0  0  0  0  0  0  0
   46.7423   31.5107   37.3170 H   0  0  0  0  0  0  0  0  0  0  0  0
   48.4520   32.2889   38.8763 H   0  0  0  0  0  0  0  0  0  0  0  0
   48.9456   35.5340   39.9367 H   0  0  0  0  0  0  0  0  0  0  0  0
   47.7057   36.0637   41.0734 H   0  0  0  0  0  0  0  0  0  0  0  0
   50.5081   34.9440   41.6585 H   0  0  0  0  0  0  0  0  0  0  0  0
   49.7714   36.3004   42.4321 H   0  0  0  0  0  0  0  0  0  0  0  0
   49.5675   33.9988   43.7737 H   0  0  0  0  0  0  0  0  0  0  0  0
   48.0189   34.7333   43.5526 H   0  0  0  0  0  0  0  0  0  0  0  0
   47.8097   32.4892   42.4492 H   0  0  0  0  0  0  0  0  0  0  0  0
   49.3864   32.5659   41.7279 H   0  0  0  0  0  0  0  0  0  0  0  0
   45.7256   36.8309   43.4060 H   0  0  0  0  0  0  0  0  0  0  0  0
   44.2450   36.6049   41.4216 H   0  0  0  0  0  0  0  0  0  0  0  0
   45.1513   32.7295   44.2238 H   0  0  0  0  0  0  0  0  0  0  0  0
  2  1  1  0
  3  2  2  0
  3 21  1  0
  4  3  1  0
  5  6  1  0
  5  4  2  0
  6  7  2  0
  7  2  1  0
  8  4  1  0
  8 13  1  0
  9  8  2  0
 10  9  1  0
 10 11  2  0
 11 12  1  0
 12 13  2  0
 12 14  1  0
 14 18  1  0
 15 14  1  0
 15 16  1  0
 16 17  1  0
 18 17  1  0
 19 24  2  0
 20 19  1  0
 21 20  2  0
 21 22  1  0
 22 23  2  0
 23 24  1  0
  5 25  1  0
  6 26  1  0
  7 27  1  0
  9 28  1  0
 10 29  1  0
 11 30  1  0
 15 31  1  0
 15 32  1  0
 16 33  1  0
 16 34  1  0
 17 35  1  0
 17 36  1  0
 18 37  1  0
 18 38  1  0
 19 39  1  0
 20 40  1  0
 23 41  1  0
M  ISO  8  25  14  26  14  27  14  28  14  29  14  30  14  31  13  32  13
M  ISO  8  33  13  34  13  35  13  36  13  37  13  38  13  39  14  40  14
M  ISO  1  41  14
M  END
>  <minimizedAffinity>  (1) 
-5.7819643

>  <minimizedRMSD>  (1) 
3.56033945

$$$$
