
     RDKit          3D

 39 42  0  0  0  0  0  0  0  0999 V2000
   41.1350   35.5090   42.0570 Cl  0  0  0  0  0  0  0  0  0  0  0  0
   41.7470   34.7550   40.5960 C   0  0  0  0  0  0  0  0  0  0  0  0
   43.0250   34.3020   40.5180 C   0  0  0  0  0  0  0  0  0  0  0  0
   43.3900   33.7280   39.3190 C   0  0  0  0  0  0  0  0  0  0  0  0
   42.5470   33.6120   38.2690 C   0  0  0  0  0  0  0  0  0  0  0  0
   41.2590   34.0730   38.3590 C   0  0  0  0  0  0  0  0  0  0  0  0
   40.8700   34.6470   39.5400 C   0  0  0  0  0  0  0  0  0  0  0  0
   45.3390   35.7490   43.1330 C   0  0  0  0  0  0  0  0  0  0  0  0
   44.5040   35.6320   42.0260 C   0  0  0  0  0  0  0  0  0  0  0  0
   43.8960   34.4470   41.6650 C   0  0  0  0  0  0  0  0  0  0  0  0
   44.1700   33.3850   42.4730 N   0  0  0  0  0  0  0  0  0  0  0  0
   44.9740   33.4910   43.5440 C   0  0  0  0  0  0  0  0  0  0  0  0
   45.5570   34.6460   43.8810 N   0  0  0  0  0  0  0  0  0  0  0  0
   44.7710   33.2250   39.1980 C   0  0  0  0  0  0  0  0  0  0  0  0
   45.0080   32.2120   38.2790 C   0  0  0  0  0  0  0  0  0  0  0  0
   46.3200   31.8240   38.2510 C   0  0  0  0  0  0  0  0  0  0  0  0
   47.3440   32.3280   39.0120 C   0  0  0  0  0  0  0  0  0  0  0  0
   47.0140   33.3380   39.9020 C   0  0  0  0  0  0  0  0  0  0  0  0
   45.7410   33.7430   39.9570 N   0  0  0  0  0  0  0  0  0  0  0  0
   47.9870   33.9750   40.7790 C   0  0  0  0  0  0  0  0  0  0  0  0
   48.6720   33.1860   41.6750 C   0  0  0  0  0  0  0  0  0  0  0  0
   49.6150   33.6570   42.5570 C   0  0  0  0  0  0  0  0  0  0  0  0
   49.9220   35.0010   42.5770 C   0  0  0  0  0  0  0  0  0  0  0  0
   49.2340   35.7880   41.6780 C   0  0  0  0  0  0  0  0  0  0  0  0
   48.2810   35.3120   40.7860 C   0  0  0  0  0  0  0  0  0  0  0  0
   42.8965   33.1448   37.3365 H   0  0  0  0  0  0  0  0  0  0  0  0
   40.5624   33.9849   37.5123 H   0  0  0  0  0  0  0  0  0  0  0  0
   39.8432   35.0269   39.6464 H   0  0  0  0  0  0  0  0  0  0  0  0
   45.8071   36.7104   43.3909 H   0  0  0  0  0  0  0  0  0  0  0  0
   44.3202   36.5250   41.4105 H   0  0  0  0  0  0  0  0  0  0  0  0
   45.1583   32.6003   44.1626 H   0  0  0  0  0  0  0  0  0  0  0  0
   44.2270   31.7697   37.6431 H   0  0  0  0  0  0  0  0  0  0  0  0
   46.5811   31.0233   37.5434 H   0  0  0  0  0  0  0  0  0  0  0  0
   48.3731   31.9504   38.9207 H   0  0  0  0  0  0  0  0  0  0  0  0
   48.4503   32.1086   41.6859 H   0  0  0  0  0  0  0  0  0  0  0  0
   50.1228   32.9644   43.2443 H   0  0  0  0  0  0  0  0  0  0  0  0
   50.6693   35.4193   43.2673 H   0  0  0  0  0  0  0  0  0  0  0  0
   49.4545   36.8656   41.6661 H   0  0  0  0  0  0  0  0  0  0  0  0
   47.7703   35.9994   40.0956 H   0  0  0  0  0  0  0  0  0  0  0  0
  2  1  1  0
  3  2  2  0
  3 10  1  0
  4  3  1  0
  5  6  1  0
  5  4  2  0
  6  7  2  0
  7  2  1  0
  8 13  2  0
  9  8  1  0
 10  9  2  0
 10 11  1  0
 11 12  2  0
 12 13  1  0
 14  4  1  0
 14 19  1  0
 15 14  2  0
 16 15  1  0
 16 17  2  0
 17 18  1  0
 18 19  2  0
 18 20  1  0
 20 25  1  0
 20 21  2  0
 21 22  1  0
 22 23  2  0
 24 23  1  0
 25 24  2  0
  5 26  1  0
  6 27  1  0
  7 28  1  0
  8 29  1  0
  9 30  1  0
 12 31  1  0
 15 32  1  0
 16 33  1  0
 17 34  1  0
 21 35  1  0
 22 36  1  0
 23 37  1  0
 24 38  1  0
 25 39  1  0
M  ISO  8  26  14  27  14  28  14  29  14  30  14  31  14  32  14  33  14
M  ISO  6  34  14  35  14  36  14  37  14  38  14  39  14
M  END
>  <minimizedAffinity>  (1) 
-6.40201187

>  <minimizedRMSD>  (1) 
3.68298388

$$$$
