
     RDKit          3D

 33 35  0  0  0  0  0  0  0  0999 V2000
   46.2730   31.9870   47.2570 C   0  0  0  0  0  0  0  0  0  0  0  0
   45.4750   32.3580   48.3390 C   0  0  0  0  0  0  0  0  0  0  0  0
   44.9330   31.4830   49.2500 C   0  0  0  0  0  0  0  0  0  0  0  0
   45.1950   30.1560   49.0790 C   0  0  0  0  0  0  0  0  0  0  0  0
   45.9880   29.7850   48.0070 C   0  0  0  0  0  0  0  0  0  0  0  0
   46.5580   30.6780   47.0650 C   0  0  0  0  0  0  0  0  0  0  0  0
   47.3600   29.7830   46.2120 C   0  0  0  0  0  0  0  0  0  0  0  0
   48.7130   29.4380   46.3700 C   0  0  0  0  0  0  0  0  0  0  0  0
   49.1280   28.4980   45.4750 C   0  0  0  0  0  0  0  0  0  0  0  0
   47.9910   28.3030   44.7940 N   0  0  0  0  0  0  0  0  0  0  0  0
   46.9640   29.0190   45.1890 N   0  0  0  0  0  0  0  0  0  0  0  0
   46.8230   32.8400   46.2010 C   0  0  0  0  0  0  0  0  0  0  0  0
   46.1200   32.6610   44.8900 C   0  0  0  0  0  0  0  0  0  0  0  0
   44.5470   36.0150   44.7640 C   0  0  0  0  0  0  0  0  0  0  0  0
   44.9610   36.4830   43.4970 C   0  0  0  0  0  0  0  0  0  0  0  0
   45.7550   35.6410   42.7470 C   0  0  0  0  0  0  0  0  0  0  0  0
   46.0880   34.4510   43.2420 N   0  0  0  0  0  0  0  0  0  0  0  0
   45.6650   34.0440   44.4710 C   0  0  0  0  0  0  0  0  0  0  0  0
   44.9090   34.8070   45.2210 N   0  0  0  0  0  0  0  0  0  0  0  0
   45.2639   33.4292   48.4731 H   0  0  0  0  0  0  0  0  0  0  0  0
   44.3118   31.8396   50.0848 H   0  0  0  0  0  0  0  0  0  0  0  0
   44.7889   29.4038   49.7713 H   0  0  0  0  0  0  0  0  0  0  0  0
   46.1921   28.7121   47.8755 H   0  0  0  0  0  0  0  0  0  0  0  0
   49.3679   29.8800   47.1353 H   0  0  0  0  0  0  0  0  0  0  0  0
   50.1161   28.0317   45.3478 H   0  0  0  0  0  0  0  0  0  0  0  0
   47.9268   27.6355   44.0122 H   0  0  0  0  0  0  0  0  0  0  0  0
   46.7270   33.8909   46.5115 H   0  0  0  0  0  0  0  0  0  0  0  0
   47.8752   32.5538   46.0562 H   0  0  0  0  0  0  0  0  0  0  0  0
   46.8078   32.2412   44.1412 H   0  0  0  0  0  0  0  0  0  0  0  0
   45.2719   31.9660   44.9779 H   0  0  0  0  0  0  0  0  0  0  0  0
   43.9118   36.6574   45.3916 H   0  0  0  0  0  0  0  0  0  0  0  0
   44.6634   37.4746   43.1253 H   0  0  0  0  0  0  0  0  0  0  0  0
   46.1088   35.9489   41.7520 H   0  0  0  0  0  0  0  0  0  0  0  0
  1  2  2  0
  2  3  1  0
  4  3  2  0
  5  4  1  0
  6  1  1  0
  6  5  2  0
  7  8  1  0
  7  6  1  0
  9  8  2  0
 10 11  1  0
 10  9  1  0
 11  7  2  0
 12  1  1  0
 13 12  1  0
 14 19  2  0
 15 14  1  0
 16 17  1  0
 16 15  2  0
 17 18  2  0
 18 13  1  0
 18 19  1  0
  2 20  1  0
  3 21  1  0
  4 22  1  0
  5 23  1  0
  8 24  1  0
  9 25  1  0
 10 26  1  0
 12 27  1  0
 12 28  1  0
 13 29  1  0
 13 30  1  0
 14 31  1  0
 15 32  1  0
 16 33  1  0
M  ISO  8  20  14  21  14  22  14  23  14  24  14  25  14  26   9  27   8
M  ISO  6  28   8  29   8  30   8  31  14  32  14  33  14
M  END
>  <minimizedAffinity>  (1) 
-4.77038765

>  <minimizedRMSD>  (1) 
1.05512607

$$$$
