
     RDKit          3D

 32 34  0  0  0  0  0  0  0  0999 V2000
   41.8910   34.3500   41.4160 Cl  0  0  0  0  0  0  0  0  0  0  0  0
   43.3110   33.8920   40.5130 C   0  0  0  0  0  0  0  0  0  0  0  0
   44.5490   33.9620   41.0540 C   0  0  0  0  0  0  0  0  0  0  0  0
   45.5910   33.5730   40.2400 C   0  0  0  0  0  0  0  0  0  0  0  0
   45.4340   33.1390   38.9690 C   0  0  0  0  0  0  0  0  0  0  0  0
   44.1720   33.0710   38.4250 C   0  0  0  0  0  0  0  0  0  0  0  0
   43.1190   33.4500   39.2070 C   0  0  0  0  0  0  0  0  0  0  0  0
   44.7140   36.1840   44.1140 C   0  0  0  0  0  0  0  0  0  0  0  0
   44.5680   35.7540   42.7820 C   0  0  0  0  0  0  0  0  0  0  0  0
   44.6950   34.4260   42.4080 C   0  0  0  0  0  0  0  0  0  0  0  0
   44.9750   33.5590   43.4290 N   0  0  0  0  0  0  0  0  0  0  0  0
   45.1150   33.9690   44.6950 C   0  0  0  0  0  0  0  0  0  0  0  0
   44.9890   35.2610   45.0490 N   0  0  0  0  0  0  0  0  0  0  0  0
   46.9610   33.6380   40.8020 C   0  0  0  0  0  0  0  0  0  0  0  0
   47.5670   32.4210   41.1320 C   0  0  0  0  0  0  0  0  0  0  0  0
   48.8320   32.5880   41.6440 C   0  0  0  0  0  0  0  0  0  0  0  0
   49.4830   33.7670   41.8380 C   0  0  0  0  0  0  0  0  0  0  0  0
   48.7990   34.9380   41.4790 C   0  0  0  0  0  0  0  0  0  0  0  0
   47.5620   34.8060   40.9760 N   0  0  0  0  0  0  0  0  0  0  0  0
   49.3880   36.2820   41.6360 C   0  0  0  0  0  0  0  0  0  0  0  0
   46.3099   32.8421   38.3735 H   0  0  0  0  0  0  0  0  0  0  0  0
   44.0165   32.7225   37.3933 H   0  0  0  0  0  0  0  0  0  0  0  0
   42.0992   33.4052   38.7972 H   0  0  0  0  0  0  0  0  0  0  0  0
   44.6059   37.2456   44.3812 H   0  0  0  0  0  0  0  0  0  0  0  0
   44.3442   36.5019   42.0071 H   0  0  0  0  0  0  0  0  0  0  0  0
   45.3408   33.2246   45.4727 H   0  0  0  0  0  0  0  0  0  0  0  0
   47.0857   31.4411   40.9971 H   0  0  0  0  0  0  0  0  0  0  0  0
   49.3742   31.6734   41.9261 H   0  0  0  0  0  0  0  0  0  0  0  0
   50.4994   33.8004   42.2573 H   0  0  0  0  0  0  0  0  0  0  0  0
   49.4901   36.5149   42.7062 H   0  0  0  0  0  0  0  0  0  0  0  0
   50.3791   36.3059   41.1594 H   0  0  0  0  0  0  0  0  0  0  0  0
   48.7339   37.0270   41.1594 H   0  0  0  0  0  0  0  0  0  0  0  0
  2  3  2  0
  2  1  1  0
  3 10  1  0
  4 14  1  0
  4  3  1  0
  5  4  2  0
  6  5  1  0
  6  7  2  0
  7  2  1  0
  8 13  2  0
  9  8  1  0
 10  9  2  0
 10 11  1  0
 11 12  2  0
 12 13  1  0
 14 19  1  0
 14 15  2  0
 15 16  1  0
 16 17  2  0
 18 20  1  0
 18 17  1  0
 19 18  2  0
  5 21  1  0
  6 22  1  0
  7 23  1  0
  8 24  1  0
  9 25  1  0
 12 26  1  0
 15 27  1  0
 16 28  1  0
 17 29  1  0
 20 30  1  0
 20 31  1  0
 20 32  1  0
M  ISO  8  21  14  22  14  23  14  24  14  25  14  26  14  27  14  28  14
M  ISO  4  29  14  30   8  31   8  32   8
M  END
>  <minimizedAffinity>  (1) 
-5.21788311

>  <minimizedRMSD>  (1) 
0.961273909

$$$$
