
     RDKit          3D

 44 47  0  0  0  0  0  0  0  0999 V2000
   40.7880   33.6820   41.7860 Cl  0  0  0  0  0  0  0  0  0  0  0  0
   41.5440   33.2180   40.2800 C   0  0  0  0  0  0  0  0  0  0  0  0
   42.8700   33.3910   40.0700 C   0  0  0  0  0  0  0  0  0  0  0  0
   43.3560   32.9920   38.8580 C   0  0  0  0  0  0  0  0  0  0  0  0
   42.5820   32.4450   37.8830 C   0  0  0  0  0  0  0  0  0  0  0  0
   41.2370   32.2700   38.0980 C   0  0  0  0  0  0  0  0  0  0  0  0
   40.7300   32.6660   39.3150 C   0  0  0  0  0  0  0  0  0  0  0  0
   44.8010   33.1670   38.5980 C   0  0  0  0  0  0  0  0  0  0  0  0
   45.2340   33.0640   37.2740 C   0  0  0  0  0  0  0  0  0  0  0  0
   46.5820   33.2420   37.1490 C   0  0  0  0  0  0  0  0  0  0  0  0
   47.4730   33.4950   38.1450 C   0  0  0  0  0  0  0  0  0  0  0  0
   46.9660   33.5850   39.4400 C   0  0  0  0  0  0  0  0  0  0  0  0
   45.6430   33.4140   39.5960 N   0  0  0  0  0  0  0  0  0  0  0  0
   47.7710   33.8440   40.5820 N   0  0  0  0  0  0  0  0  0  0  0  0
   47.7600   35.1470   41.2190 C   0  0  0  0  0  0  0  0  0  0  0  0
   49.0780   35.4910   41.8530 C   0  0  0  0  0  0  0  0  0  0  0  0
   49.6100   34.4250   42.7510 C   0  0  0  0  0  0  0  0  0  0  0  0
   48.9670   33.0850   42.5910 C   0  0  0  0  0  0  0  0  0  0  0  0
   48.6260   32.8180   41.1460 C   0  0  0  0  0  0  0  0  0  0  0  0
   44.6620   35.8840   42.2890 C   0  0  0  0  0  0  0  0  0  0  0  0
   43.8870   35.3430   41.2670 C   0  0  0  0  0  0  0  0  0  0  0  0
   43.6720   33.9750   41.1230 C   0  0  0  0  0  0  0  0  0  0  0  0
   44.2840   33.1900   42.0700 N   0  0  0  0  0  0  0  0  0  0  0  0
   45.0320   33.7190   43.0530 C   0  0  0  0  0  0  0  0  0  0  0  0
   45.2230   35.0450   43.1690 N   0  0  0  0  0  0  0  0  0  0  0  0
   43.0316   32.1437   36.9254 H   0  0  0  0  0  0  0  0  0  0  0  0
   40.5887   31.8296   37.3262 H   0  0  0  0  0  0  0  0  0  0  0  0
   39.6568   32.5396   39.5206 H   0  0  0  0  0  0  0  0  0  0  0  0
   44.5633   32.8619   36.4259 H   0  0  0  0  0  0  0  0  0  0  0  0
   46.9925   33.1732   36.1308 H   0  0  0  0  0  0  0  0  0  0  0  0
   48.5457   33.6228   37.9377 H   0  0  0  0  0  0  0  0  0  0  0  0
   47.5246   35.9081   40.4605 H   0  0  0  0  0  0  0  0  0  0  0  0
   47.0030   35.1217   42.0167 H   0  0  0  0  0  0  0  0  0  0  0  0
   49.8118   35.6689   41.0531 H   0  0  0  0  0  0  0  0  0  0  0  0
   48.9111   36.3817   42.4765 H   0  0  0  0  0  0  0  0  0  0  0  0
   50.6855   34.3137   42.5486 H   0  0  0  0  0  0  0  0  0  0  0  0
   49.3902   34.7507   43.7784 H   0  0  0  0  0  0  0  0  0  0  0  0
   49.6604   32.3085   42.9463 H   0  0  0  0  0  0  0  0  0  0  0  0
   48.0374   33.0699   43.1790 H   0  0  0  0  0  0  0  0  0  0  0  0
   48.1082   31.8499   41.0781 H   0  0  0  0  0  0  0  0  0  0  0  0
   49.5660   32.8129   40.5747 H   0  0  0  0  0  0  0  0  0  0  0  0
   44.8095   36.9709   42.3714 H   0  0  0  0  0  0  0  0  0  0  0  0
   43.4237   36.0270   40.5407 H   0  0  0  0  0  0  0  0  0  0  0  0
   45.5026   33.0466   43.7854 H   0  0  0  0  0  0  0  0  0  0  0  0
  2  1  1  0
  3  2  2  0
  3 22  1  0
  4  3  1  0
  5  6  1  0
  5  4  2  0
  6  7  2  0
  7  2  1  0
  8  4  1  0
  8 13  1  0
  9  8  2  0
 10  9  1  0
 10 11  2  0
 11 12  1  0
 12 13  2  0
 12 14  1  0
 14 19  1  0
 14 15  1  0
 15 16  1  0
 16 17  1  0
 18 17  1  0
 19 18  1  0
 20 25  2  0
 21 20  1  0
 22 21  2  0
 22 23  1  0
 23 24  2  0
 24 25  1  0
  5 26  1  0
  6 27  1  0
  7 28  1  0
  9 29  1  0
 10 30  1  0
 11 31  1  0
 15 32  1  0
 15 33  1  0
 16 34  1  0
 16 35  1  0
 17 36  1  0
 17 37  1  0
 18 38  1  0
 18 39  1  0
 19 40  1  0
 19 41  1  0
 20 42  1  0
 21 43  1  0
 24 44  1  0
M  ISO  8  26  14  27  14  28  14  29  14  30  14  31  14  32  13  33  13
M  ISO  8  34  13  35  13  36  13  37  13  38  13  39  13  40  13  41  13
M  ISO  3  42  14  43  14  44  14
M  END
>  <minimizedAffinity>  (1) 
-5.7787571

>  <minimizedRMSD>  (1) 
3.98680663

$$$$
