
     RDKit          3D

 26 27  0  0  0  0  0  0  0  0999 V2000
   46.7690   35.0890   42.5650 C   0  0  0  0  0  0  0  0  0  0  0  0
   47.0180   34.0670   43.4890 C   0  0  0  0  0  0  0  0  0  0  0  0
   46.1050   33.8610   44.5430 C   0  0  0  0  0  0  0  0  0  0  0  0
   45.0280   34.6750   44.5940 N   0  0  0  0  0  0  0  0  0  0  0  0
   44.8000   35.6500   43.7030 C   0  0  0  0  0  0  0  0  0  0  0  0
   45.6680   35.8570   42.6940 N   0  0  0  0  0  0  0  0  0  0  0  0
   44.8510   34.0940   46.9460 F   0  0  0  0  0  0  0  0  0  0  0  0
   45.6700   33.0210   46.6970 C   0  0  0  0  0  0  0  0  0  0  0  0
   46.3660   32.7940   45.4960 C   0  0  0  0  0  0  0  0  0  0  0  0
   47.1540   31.6670   45.3930 C   0  0  0  0  0  0  0  0  0  0  0  0
   47.2310   30.8040   46.4730 C   0  0  0  0  0  0  0  0  0  0  0  0
   46.5620   30.9990   47.6600 C   0  0  0  0  0  0  0  0  0  0  0  0
   45.7760   32.1310   47.7510 C   0  0  0  0  0  0  0  0  0  0  0  0
   48.1660   33.3000   43.3160 O   0  0  0  0  0  0  0  0  0  0  0  0
   50.6150   32.8830   42.4500 O   0  0  0  0  0  0  0  0  0  0  0  0
   49.5140   33.9030   42.4560 P   0  0  0  0  0  0  0  0  0  0  0  0
   49.1200   34.2720   40.8520 O   0  0  0  0  0  0  0  0  0  0  0  0
   50.0720   35.3160   43.2210 O   0  0  0  0  0  0  0  0  0  0  0  0
   47.4699   35.2651   41.7357 H   0  0  0  0  0  0  0  0  0  0  0  0
   43.9039   36.2812   43.7958 H   0  0  0  0  0  0  0  0  0  0  0  0
   47.7119   31.4572   44.4685 H   0  0  0  0  0  0  0  0  0  0  0  0
   47.8642   29.9097   46.3767 H   0  0  0  0  0  0  0  0  0  0  0  0
   46.6491   30.2883   48.4950 H   0  0  0  0  0  0  0  0  0  0  0  0
   45.2227   32.3291   48.6809 H   0  0  0  0  0  0  0  0  0  0  0  0
   48.3975   34.9487   40.8370 H   0  0  0  0  0  0  0  0  0  0  0  0
   50.0261   35.1997   44.2031 H   0  0  0  0  0  0  0  0  0  0  0  0
  1  6  2  0
  1  2  1  0
  2  3  2  0
  3  4  1  0
  3  9  1  0
  5  4  2  0
  6  5  1  0
  8  7  1  0
  8 13  2  0
  9  8  1  0
 10  9  2  0
 10 11  1  0
 11 12  2  0
 12 13  1  0
 14  2  1  0
 15 16  2  0
 16 18  1  0
 16 14  1  0
 17 16  1  0
  1 19  1  0
  5 20  1  0
 10 21  1  0
 11 22  1  0
 12 23  1  0
 13 24  1  0
 17 25  1  0
 18 26  1  0
M  ISO  8  19  14  20  14  21  14  22  14  23  14  24  14  25   3  26   3
M  END
>  <minimizedAffinity>  (1) 
-5.77200413

>  <minimizedRMSD>  (1) 
0.781674862

$$$$
