
     RDKit          3D

 33 34  0  0  1  0  0  0  0  0999 V2000
   45.7520   34.7640   43.5240 C   0  0  0  0  0  0  0  0  0  0  0  0
   46.0500   33.6560   44.3180 C   0  0  0  0  0  0  0  0  0  0  0  0
   45.5560   33.6420   45.6350 C   0  0  0  0  0  0  0  0  0  0  0  0
   44.8230   34.6960   46.0600 N   0  0  0  0  0  0  0  0  0  0  0  0
   44.5560   35.7540   45.2570 C   0  0  0  0  0  0  0  0  0  0  0  0
   45.0200   35.7900   43.9860 N   0  0  0  0  0  0  0  0  0  0  0  0
   45.2150   32.5670   47.8300 C   0  0  2  0  0  0  0  0  0  0  0  0
   45.8730   32.4610   46.4840 C   0  0  2  0  0  0  0  0  0  0  0  0
   47.2650   32.3870   46.7040 O   0  0  0  0  0  0  0  0  0  0  0  0
   47.5060   31.1300   47.2530 C   0  0  0  0  0  0  0  0  0  0  0  0
   47.1200   31.2040   48.7120 C   0  0  2  0  0  0  0  0  0  0  0  0
   46.1890   32.3710   48.9700 C   0  0  2  0  0  0  0  0  0  0  0  0
   44.1500   31.7060   47.9930 O   0  0  0  0  0  0  0  0  0  0  0  0
   48.2350   31.3590   49.5260 O   0  0  0  0  0  0  0  0  0  0  0  0
   45.4490   32.1310   50.1210 O   0  0  0  0  0  0  0  0  0  0  0  0
   46.8060   32.6480   43.7670 O   0  0  0  0  0  0  0  0  0  0  0  0
   49.1560   31.8420   42.8600 O   0  0  0  0  0  0  0  0  0  0  0  0
   48.2090   32.9920   42.8410 P   0  0  0  0  0  0  0  0  0  0  0  0
   47.8010   33.2880   41.2170 O   0  0  0  0  0  0  0  0  0  0  0  0
   48.9890   34.3720   43.4420 O   0  0  0  0  0  0  0  0  0  0  0  0
   46.1274   34.7977   42.4906 H   0  0  0  0  0  0  0  0  0  0  0  0
   43.9562   36.5920   45.6417 H   0  0  0  0  0  0  0  0  0  0  0  0
   44.8280   33.5962   47.8601 H   0  0  0  0  0  0  0  0  0  0  0  0
   45.5047   31.5697   45.9549 H   0  0  0  0  0  0  0  0  0  0  0  0
   46.8981   30.3706   46.7394 H   0  0  0  0  0  0  0  0  0  0  0  0
   48.5634   30.8485   47.1404 H   0  0  0  0  0  0  0  0  0  0  0  0
   46.6152   30.2561   48.9502 H   0  0  0  0  0  0  0  0  0  0  0  0
   46.8115   33.2717   49.0759 H   0  0  0  0  0  0  0  0  0  0  0  0
   43.9810   31.5693   48.9588 H   0  0  0  0  0  0  0  0  0  0  0  0
   47.9582   31.3205   50.4757 H   0  0  0  0  0  0  0  0  0  0  0  0
   46.0088   32.3126   50.9171 H   0  0  0  0  0  0  0  0  0  0  0  0
   47.0003   33.8689   41.1785 H   0  0  0  0  0  0  0  0  0  0  0  0
   48.9780   34.3526   44.4317 H   0  0  0  0  0  0  0  0  0  0  0  0
  1  6  2  0
  1  2  1  0
  2  3  2  0
  3  4  1  0
  5  4  2  0
  6  5  1  0
  7 13  1  0
  7 12  1  0
  8  3  1  0
  8  9  1  0
  8  7  1  0
  9 10  1  0
 10 11  1  0
 11 12  1  0
 11 14  1  0
 12 15  1  0
 16  2  1  0
 18 17  2  0
 18 20  1  0
 18 16  1  0
 19 18  1  0
  1 21  1  0
  5 22  1  0
  7 23  1  1
  8 24  1  6
 10 25  1  0
 10 26  1  0
 11 27  1  1
 12 28  1  1
 13 29  1  0
 14 30  1  0
 15 31  1  0
 19 32  1  0
 20 33  1  0
M  ISO  8  21  14  22  14  23  13  24  13  25  13  26  13  27  13  28  13
M  ISO  5  29   3  30   3  31   3  32   3  33   3
M  END
>  <minimizedAffinity>  (1) 
-6.23990965

>  <minimizedRMSD>  (1) 
1.91068208

$$$$
