
     RDKit          3D

 29 30  0  0  1  0  0  0  0  0999 V2000
   46.1110   34.8880   43.1840 C   0  0  0  0  0  0  0  0  0  0  0  0
   46.4130   33.9000   44.1270 C   0  0  0  0  0  0  0  0  0  0  0  0
   45.7380   33.9420   45.3560 C   0  0  0  0  0  0  0  0  0  0  0  0
   44.8370   34.9200   45.5810 N   0  0  0  0  0  0  0  0  0  0  0  0
   44.5700   35.8610   44.6410 C   0  0  0  0  0  0  0  0  0  0  0  0
   45.2070   35.8480   43.4390 N   0  0  0  0  0  0  0  0  0  0  0  0
   45.0540   32.7150   47.4240 C   0  0  1  0  0  0  0  0  0  0  0  0
   46.0790   32.8910   46.3200 C   0  0  2  0  0  0  0  0  0  0  0  0
   47.2260   33.1690   47.0590 O   0  0  0  0  0  0  0  0  0  0  0  0
   47.2610   32.0920   47.9620 C   0  0  0  0  0  0  0  0  0  0  0  0
   45.8420   31.8540   48.3920 C   0  0  1  0  0  0  0  0  0  0  0  0
   44.7410   33.9450   47.9670 O   0  0  0  0  0  0  0  0  0  0  0  0
   45.6110   32.2110   49.7140 O   0  0  0  0  0  0  0  0  0  0  0  0
   47.3550   32.9500   43.7820 O   0  0  0  0  0  0  0  0  0  0  0  0
   49.5970   32.1690   42.6540 O   0  0  0  0  0  0  0  0  0  0  0  0
   48.6690   33.3450   42.7440 P   0  0  0  0  0  0  0  0  0  0  0  0
   48.0980   33.6730   41.1870 O   0  0  0  0  0  0  0  0  0  0  0  0
   49.5120   34.6720   43.3340 O   0  0  0  0  0  0  0  0  0  0  0  0
   46.6254   34.8785   42.2118 H   0  0  0  0  0  0  0  0  0  0  0  0
   43.8284   36.6451   44.8536 H   0  0  0  0  0  0  0  0  0  0  0  0
   44.0907   32.2782   47.1219 H   0  0  0  0  0  0  0  0  0  0  0  0
   46.1717   32.0146   45.6617 H   0  0  0  0  0  0  0  0  0  0  0  0
   47.6649   31.1952   47.4693 H   0  0  0  0  0  0  0  0  0  0  0  0
   47.9072   32.3147   48.8239 H   0  0  0  0  0  0  0  0  0  0  0  0
   45.5620   30.7906   48.3625 H   0  0  0  0  0  0  0  0  0  0  0  0
   44.7567   33.8832   48.9549 H   0  0  0  0  0  0  0  0  0  0  0  0
   46.0388   31.5498   50.3139 H   0  0  0  0  0  0  0  0  0  0  0  0
   47.2411   34.1652   41.2466 H   0  0  0  0  0  0  0  0  0  0  0  0
   49.5018   34.6560   44.3238 H   0  0  0  0  0  0  0  0  0  0  0  0
  1  6  2  0
  1  2  1  0
  2  3  2  0
  3  4  1  0
  5  4  2  0
  6  5  1  0
  7 12  1  0
  7 11  1  0
  8  3  1  0
  8  9  1  0
  8  7  1  0
  9 10  1  0
 10 11  1  0
 11 13  1  0
 14  2  1  0
 15 16  2  0
 16 18  1  0
 16 14  1  0
 17 16  1  0
  1 19  1  0
  5 20  1  0
  7 21  1  6
  8 22  1  6
 10 23  1  0
 10 24  1  0
 11 25  1  1
 12 26  1  0
 13 27  1  0
 17 28  1  0
 18 29  1  0
M  ISO  8  19  14  20  14  21  13  22  13  23  13  24  13  25  13  26   3
M  ISO  3  27   3  28   3  29   3
M  END
>  <minimizedAffinity>  (1) 
-6.07454205

>  <minimizedRMSD>  (1) 
1.37305629

$$$$
