
     RDKit          3D

 24 25  0  0  0  0  0  0  0  0999 V2000
   46.7940   34.8510   42.7130 C   0  0  0  0  0  0  0  0  0  0  0  0
   47.1920   33.8320   43.5970 C   0  0  0  0  0  0  0  0  0  0  0  0
   46.4050   33.5900   44.7370 C   0  0  0  0  0  0  0  0  0  0  0  0
   45.2940   34.3540   44.9340 N   0  0  0  0  0  0  0  0  0  0  0  0
   44.9570   35.3210   44.0520 C   0  0  0  0  0  0  0  0  0  0  0  0
   45.6840   35.5830   42.9510 N   0  0  0  0  0  0  0  0  0  0  0  0
   46.8430   32.5280   45.6340 C   0  0  0  0  0  0  0  0  0  0  0  0
   46.9980   32.7450   47.0050 C   0  0  0  0  0  0  0  0  0  0  0  0
   47.4190   31.7050   47.8400 C   0  0  0  0  0  0  0  0  0  0  0  0
   47.6660   30.5120   47.2950 N   0  0  0  0  0  0  0  0  0  0  0  0
   47.5270   30.2740   45.9920 C   0  0  0  0  0  0  0  0  0  0  0  0
   47.1200   31.2940   45.2110 N   0  0  0  0  0  0  0  0  0  0  0  0
   48.3400   33.1340   43.2780 O   0  0  0  0  0  0  0  0  0  0  0  0
   50.8220   32.9740   42.4010 O   0  0  0  0  0  0  0  0  0  0  0  0
   49.6410   33.8850   42.4560 P   0  0  0  0  0  0  0  0  0  0  0  0
   49.2000   34.2500   40.8520 O   0  0  0  0  0  0  0  0  0  0  0  0
   50.0760   35.3190   43.2350 O   0  0  0  0  0  0  0  0  0  0  0  0
   47.3954   35.0548   41.8148 H   0  0  0  0  0  0  0  0  0  0  0  0
   44.0524   35.9174   44.2420 H   0  0  0  0  0  0  0  0  0  0  0  0
   46.7881   33.7378   47.4297 H   0  0  0  0  0  0  0  0  0  0  0  0
   47.5437   31.8666   48.9209 H   0  0  0  0  0  0  0  0  0  0  0  0
   47.7368   29.2807   45.5686 H   0  0  0  0  0  0  0  0  0  0  0  0
   48.4373   34.8812   40.8549 H   0  0  0  0  0  0  0  0  0  0  0  0
   50.0360   35.1872   44.2154 H   0  0  0  0  0  0  0  0  0  0  0  0
  1  6  2  0
  1  2  1  0
  2  3  2  0
  3  4  1  0
  3  7  1  0
  5  4  2  0
  6  5  1  0
  7  8  2  0
  8  9  1  0
 10  9  2  0
 11 10  1  0
 12  7  1  0
 12 11  2  0
 13  2  1  0
 14 15  2  0
 15 17  1  0
 15 13  1  0
 16 15  1  0
  1 18  1  0
  5 19  1  0
  8 20  1  0
  9 21  1  0
 11 22  1  0
 16 23  1  0
 17 24  1  0
M  ISO  7  18  14  19  14  20  14  21  14  22  14  23   3  24   3
M  END
>  <minimizedAffinity>  (1) 
-5.32339716

>  <minimizedRMSD>  (1) 
0.669533968

$$$$
