
     RDKit          3D

 18 18  0  0  0  0  0  0  0  0999 V2000
   46.3620   35.2040   42.6000 C   0  0  0  0  0  0  0  0  0  0  0  0
   46.9150   34.1230   43.2880 C   0  0  0  0  0  0  0  0  0  0  0  0
   46.3970   33.8170   44.5490 C   0  0  0  0  0  0  0  0  0  0  0  0
   45.3860   34.5830   45.0380 N   0  0  0  0  0  0  0  0  0  0  0  0
   44.8820   35.6120   44.3460 C   0  0  0  0  0  0  0  0  0  0  0  0
   45.3580   35.9460   43.1140 N   0  0  0  0  0  0  0  0  0  0  0  0
   46.9700   32.7130   45.2400 N   0  0  0  0  0  0  0  0  0  0  0  0
   47.9370   33.4330   42.6710 O   0  0  0  0  0  0  0  0  0  0  0  0
   50.4170   33.2620   41.7740 O   0  0  0  0  0  0  0  0  0  0  0  0
   49.3490   34.2320   42.1120 P   0  0  0  0  0  0  0  0  0  0  0  0
   49.0120   35.1270   40.7010 O   0  0  0  0  0  0  0  0  0  0  0  0
   49.9150   35.3090   43.2980 O   0  0  0  0  0  0  0  0  0  0  0  0
   46.7573   35.4600   41.6059 H   0  0  0  0  0  0  0  0  0  0  0  0
   44.0632   36.2025   44.7829 H   0  0  0  0  0  0  0  0  0  0  0  0
   46.6196   32.4510   46.1725 H   0  0  0  0  0  0  0  0  0  0  0  0
   47.7352   32.1758   44.8077 H   0  0  0  0  0  0  0  0  0  0  0  0
   48.6745   36.0233   40.9515 H   0  0  0  0  0  0  0  0  0  0  0  0
   49.7218   34.9414   44.1967 H   0  0  0  0  0  0  0  0  0  0  0  0
  1  6  2  0
  1  2  1  0
  2  3  2  0
  3  4  1  0
  3  7  1  0
  5  4  2  0
  6  5  1  0
  8  2  1  0
  9 10  2  0
 10  8  1  0
 10 12  1  0
 11 10  1  0
  1 13  1  0
  5 14  1  0
  7 15  1  0
  7 16  1  0
 11 17  1  0
 12 18  1  0
M  ISO  4  13  14  14  14  17   3  18   3
M  END
>  <minimizedAffinity>  (1) 
-4.41424894

>  <minimizedRMSD>  (1) 
0.0693871379

$$$$
