
     RDKit          3D

 38 41  0  0  1  0  0  0  0  0999 V2000
   46.6610   34.5500   42.2530 N   0  0  0  0  0  0  0  0  0  0  0  0
   48.1150   34.3910   42.2860 C   0  0  0  0  0  0  0  0  0  0  0  0
   48.5820   35.0910   40.9930 C   0  0  0  0  0  0  0  0  0  0  0  0
   48.0510   34.3830   39.7760 C   0  0  0  0  0  0  0  0  0  0  0  0
   46.7140   33.7730   39.9410 C   0  0  0  0  0  0  0  0  0  0  0  0
   45.9150   34.4560   41.0280 C   0  0  1  0  0  0  0  0  0  0  0  0
   43.4660   34.5220   40.5460 C   0  0  0  0  0  0  0  0  0  0  0  0
   44.5600   33.8990   41.1610 C   0  0  0  0  0  0  0  0  0  0  0  0
   44.2260   32.7610   41.8680 C   0  0  0  0  0  0  0  0  0  0  0  0
   42.9550   32.2600   41.9780 C   0  0  0  0  0  0  0  0  0  0  0  0
   42.4320   31.1860   42.6070 N   0  0  0  0  0  0  0  0  0  0  0  0
   41.1250   31.1450   42.4000 N   0  0  0  0  0  0  0  0  0  0  0  0
   40.7570   32.1860   41.6340 C   0  0  0  0  0  0  0  0  0  0  0  0
   41.9040   32.9010   41.3570 C   0  0  0  0  0  0  0  0  0  0  0  0
   42.1790   34.0350   40.6430 C   0  0  0  0  0  0  0  0  0  0  0  0
   44.4560   36.1450   44.8050 C   0  0  0  0  0  0  0  0  0  0  0  0
   45.1400   35.9390   43.6110 C   0  0  0  0  0  0  0  0  0  0  0  0
   45.9450   34.8060   43.4500 C   0  0  0  0  0  0  0  0  0  0  0  0
   46.0010   33.9640   44.5110 N   0  0  0  0  0  0  0  0  0  0  0  0
   45.3340   34.1740   45.6640 C   0  0  0  0  0  0  0  0  0  0  0  0
   44.5650   35.2670   45.8030 N   0  0  0  0  0  0  0  0  0  0  0  0
   48.5440   34.8782   43.1740 H   0  0  0  0  0  0  0  0  0  0  0  0
   48.4302   33.3386   42.3419 H   0  0  0  0  0  0  0  0  0  0  0  0
   48.2171   36.1287   40.9936 H   0  0  0  0  0  0  0  0  0  0  0  0
   49.6813   35.0697   40.9597 H   0  0  0  0  0  0  0  0  0  0  0  0
   48.7595   33.5850   39.5093 H   0  0  0  0  0  0  0  0  0  0  0  0
   47.9441   35.1511   38.9959 H   0  0  0  0  0  0  0  0  0  0  0  0
   46.1655   33.8552   38.9910 H   0  0  0  0  0  0  0  0  0  0  0  0
   46.8518   32.7202   40.2284 H   0  0  0  0  0  0  0  0  0  0  0  0
   45.7428   35.4987   40.7229 H   0  0  0  0  0  0  0  0  0  0  0  0
   43.6406   35.4374   39.9616 H   0  0  0  0  0  0  0  0  0  0  0  0
   45.0359   32.2190   42.3782 H   0  0  0  0  0  0  0  0  0  0  0  0
   42.9674   30.5036   43.1624 H   0  0  0  0  0  0  0  0  0  0  0  0
   39.7381   32.4224   41.2936 H   0  0  0  0  0  0  0  0  0  0  0  0
   41.3599   34.5676   40.1376 H   0  0  0  0  0  0  0  0  0  0  0  0
   43.8225   37.0360   44.9264 H   0  0  0  0  0  0  0  0  0  0  0  0
   45.0477   36.6680   42.7924 H   0  0  0  0  0  0  0  0  0  0  0  0
   45.4193   33.4518   46.4893 H   0  0  0  0  0  0  0  0  0  0  0  0
  1  2  1  0
  1 18  1  0
  3  2  1  0
  4  5  1  0
  4  3  1  0
  5  6  1  0
  6  8  1  0
  6  1  1  0
  7 15  2  0
  7  8  1  0
  8  9  2  0
  9 10  1  0
 10 11  1  0
 12 11  1  0
 13 12  2  0
 14 13  1  0
 14 10  2  0
 15 14  1  0
 16 21  2  0
 17 16  1  0
 18 17  2  0
 18 19  1  0
 19 20  2  0
 20 21  1  0
  2 22  1  0
  2 23  1  0
  3 24  1  0
  3 25  1  0
  4 26  1  0
  4 27  1  0
  5 28  1  0
  5 29  1  0
  6 30  1  6
  7 31  1  0
  9 32  1  0
 11 33  1  0
 13 34  1  0
 15 35  1  0
 16 36  1  0
 17 37  1  0
 20 38  1  0
M  ISO  8  22  13  23  13  24  13  25  13  26  13  27  13  28  13  29  13
M  ISO  8  30  13  31  14  32  14  33   9  34  14  35  14  36  14  37  14
M  ISO  1  38  14
M  END
>  <minimizedAffinity>  (1) 
-6.38739824

>  <minimizedRMSD>  (1) 
0.612185419

$$$$
