
     RDKit          3D

 39 42  0  0  1  0  0  0  0  0999 V2000
   46.7440   34.5700   42.2560 N   0  0  0  0  0  0  0  0  0  0  0  0
   48.1980   34.6680   42.2380 C   0  0  0  0  0  0  0  0  0  0  0  0
   48.5420   35.3410   40.9150 C   0  0  0  0  0  0  0  0  0  0  0  0
   48.0900   34.5600   39.7250 C   0  0  0  0  0  0  0  0  0  0  0  0
   46.8480   33.7470   39.9350 C   0  0  0  0  0  0  0  0  0  0  0  0
   46.0040   34.2090   41.0740 C   0  0  1  0  0  0  0  0  0  0  0  0
   45.1080   31.8880   41.5110 C   0  0  0  0  0  0  0  0  0  0  0  0
   44.9180   33.2460   41.3070 C   0  0  0  0  0  0  0  0  0  0  0  0
   43.5780   33.6220   41.3430 C   0  0  0  0  0  0  0  0  0  0  0  0
   42.5120   32.7800   41.5550 C   0  0  0  0  0  0  0  0  0  0  0  0
   41.1840   33.0630   41.6050 N   0  0  0  0  0  0  0  0  0  0  0  0
   40.5820   31.8930   41.8360 C   0  0  0  0  0  0  0  0  0  0  0  0
   41.5180   30.8830   41.9320 C   0  0  0  0  0  0  0  0  0  0  0  0
   42.7660   31.4430   41.7520 C   0  0  0  0  0  0  0  0  0  0  0  0
   44.0640   30.9990   41.7300 C   0  0  0  0  0  0  0  0  0  0  0  0
   44.4870   36.0980   44.8030 C   0  0  0  0  0  0  0  0  0  0  0  0
   45.1670   35.9610   43.5850 C   0  0  0  0  0  0  0  0  0  0  0  0
   45.9970   34.8260   43.4440 C   0  0  0  0  0  0  0  0  0  0  0  0
   46.0830   33.9450   44.4900 N   0  0  0  0  0  0  0  0  0  0  0  0
   45.3990   34.1270   45.6510 C   0  0  0  0  0  0  0  0  0  0  0  0
   44.6080   35.2020   45.7950 N   0  0  0  0  0  0  0  0  0  0  0  0
   48.5532   35.2762   43.0829 H   0  0  0  0  0  0  0  0  0  0  0  0
   48.6756   33.6815   42.3314 H   0  0  0  0  0  0  0  0  0  0  0  0
   48.0594   36.3291   40.8891 H   0  0  0  0  0  0  0  0  0  0  0  0
   49.6381   35.4162   40.8607 H   0  0  0  0  0  0  0  0  0  0  0  0
   48.9016   33.8752   39.4380 H   0  0  0  0  0  0  0  0  0  0  0  0
   47.8460   35.2986   38.9472 H   0  0  0  0  0  0  0  0  0  0  0  0
   46.2447   33.7942   39.0164 H   0  0  0  0  0  0  0  0  0  0  0  0
   47.1748   32.7247   40.1762 H   0  0  0  0  0  0  0  0  0  0  0  0
   45.5467   35.1669   40.7855 H   0  0  0  0  0  0  0  0  0  0  0  0
   46.1356   31.4957   41.4988 H   0  0  0  0  0  0  0  0  0  0  0  0
   43.3521   34.6873   41.1881 H   0  0  0  0  0  0  0  0  0  0  0  0
   40.7367   33.9836   41.4894 H   0  0  0  0  0  0  0  0  0  0  0  0
   39.4953   31.7543   41.9355 H   0  0  0  0  0  0  0  0  0  0  0  0
   41.3063   29.8199   42.1189 H   0  0  0  0  0  0  0  0  0  0  0  0
   44.2791   29.9317   41.8869 H   0  0  0  0  0  0  0  0  0  0  0  0
   43.8320   36.9693   44.9509 H   0  0  0  0  0  0  0  0  0  0  0  0
   45.0598   36.7010   42.7782 H   0  0  0  0  0  0  0  0  0  0  0  0
   45.4934   33.3969   46.4683 H   0  0  0  0  0  0  0  0  0  0  0  0
  1 18  1  0
  2  1  1  0
  3  2  1  0
  4  5  1  0
  4  3  1  0
  5  6  1  0
  6  8  1  0
  6  1  1  0
  7 15  2  0
  8  9  2  0
  8  7  1  0
  9 10  1  0
 10 11  1  0
 10 14  2  0
 11 12  1  0
 12 13  2  0
 14 13  1  0
 15 14  1  0
 16 21  2  0
 17 16  1  0
 18 17  2  0
 18 19  1  0
 19 20  2  0
 20 21  1  0
  2 22  1  0
  2 23  1  0
  3 24  1  0
  3 25  1  0
  4 26  1  0
  4 27  1  0
  5 28  1  0
  5 29  1  0
  6 30  1  6
  7 31  1  0
  9 32  1  0
 11 33  1  0
 12 34  1  0
 13 35  1  0
 15 36  1  0
 16 37  1  0
 17 38  1  0
 20 39  1  0
M  ISO  8  22  13  23  13  24  13  25  13  26  13  27  13  28  13  29  13
M  ISO  8  30  13  31  14  32  14  33   9  34  14  35  14  36  14  37  14
M  ISO  2  38  14  39  14
M  END
>  <minimizedAffinity>  (1) 
-5.98731613

>  <minimizedRMSD>  (1) 
0.429168224

$$$$
