
     RDKit          3D

 32 34  0  0  1  0  0  0  0  0999 V2000
   46.7630   34.6070   42.2510 N   0  0  0  0  0  0  0  0  0  0  0  0
   48.2220   34.5980   42.2930 C   0  0  0  0  0  0  0  0  0  0  0  0
   48.6250   35.3230   40.9990 C   0  0  0  0  0  0  0  0  0  0  0  0
   48.2030   34.5610   39.7860 C   0  0  0  0  0  0  0  0  0  0  0  0
   46.8910   33.8720   39.9220 C   0  0  0  0  0  0  0  0  0  0  0  0
   46.0310   34.3940   41.0370 C   0  0  1  0  0  0  0  0  0  0  0  0
   44.4680   36.0860   44.7990 C   0  0  0  0  0  0  0  0  0  0  0  0
   45.1670   35.9460   43.5990 C   0  0  0  0  0  0  0  0  0  0  0  0
   46.0080   34.8330   43.4430 C   0  0  0  0  0  0  0  0  0  0  0  0
   46.0800   33.9630   44.4840 N   0  0  0  0  0  0  0  0  0  0  0  0
   45.4010   34.1090   45.6370 C   0  0  0  0  0  0  0  0  0  0  0  0
   44.5910   35.1810   45.7880 N   0  0  0  0  0  0  0  0  0  0  0  0
   44.8220   33.6300   41.2080 C   0  0  0  0  0  0  0  0  0  0  0  0
   44.5840   32.3220   41.6070 C   0  0  0  0  0  0  0  0  0  0  0  0
   43.2990   31.8520   41.6810 C   0  0  0  0  0  0  0  0  0  0  0  0
   42.2330   32.6790   41.3580 C   0  0  0  0  0  0  0  0  0  0  0  0
   43.1040   34.2980   40.8970 S   0  0  0  0  0  0  0  0  0  0  0  0
   48.5928   35.1372   43.1772 H   0  0  0  0  0  0  0  0  0  0  0  0
   48.6414   33.5835   42.3631 H   0  0  0  0  0  0  0  0  0  0  0  0
   48.1476   36.3139   40.9818 H   0  0  0  0  0  0  0  0  0  0  0  0
   49.7211   35.4139   40.9834 H   0  0  0  0  0  0  0  0  0  0  0  0
   48.9701   33.8023   39.5715 H   0  0  0  0  0  0  0  0  0  0  0  0
   48.0906   35.2959   38.9753 H   0  0  0  0  0  0  0  0  0  0  0  0
   46.3400   33.9909   38.9774 H   0  0  0  0  0  0  0  0  0  0  0  0
   47.1107   32.8207   40.1596 H   0  0  0  0  0  0  0  0  0  0  0  0
   45.6960   35.3959   40.7305 H   0  0  0  0  0  0  0  0  0  0  0  0
   43.8043   36.9519   44.9392 H   0  0  0  0  0  0  0  0  0  0  0  0
   45.0614   36.6896   42.7953 H   0  0  0  0  0  0  0  0  0  0  0  0
   45.5035   33.3680   46.4435 H   0  0  0  0  0  0  0  0  0  0  0  0
   45.4266   31.6631   41.8637 H   0  0  0  0  0  0  0  0  0  0  0  0
   43.1120   30.8153   41.9976 H   0  0  0  0  0  0  0  0  0  0  0  0
   41.1566   32.4528   41.3671 H   0  0  0  0  0  0  0  0  0  0  0  0
  1  2  1  0
  1  9  1  0
  3  2  1  0
  4  5  1  0
  4  3  1  0
  5  6  1  0
  6 13  1  0
  6  1  1  0
  7 12  2  0
  8  7  1  0
  9  8  2  0
  9 10  1  0
 10 11  2  0
 11 12  1  0
 13 14  2  0
 14 15  1  0
 16 15  2  0
 17 13  1  0
 17 16  1  0
  2 18  1  0
  2 19  1  0
  3 20  1  0
  3 21  1  0
  4 22  1  0
  4 23  1  0
  5 24  1  0
  5 25  1  0
  6 26  1  6
  7 27  1  0
  8 28  1  0
 11 29  1  0
 14 30  1  0
 15 31  1  0
 16 32  1  0
M  ISO  8  18  13  19  13  20  13  21  13  22  13  23  13  24  13  25  13
M  ISO  7  26  13  27  14  28  14  29  14  30  14  31  14  32  14
M  END
>  <minimizedAffinity>  (1) 
-5.20529938

>  <minimizedRMSD>  (1) 
0.484616816

$$$$
