
     RDKit          3D

 37 39  0  0  1  0  0  0  0  0999 V2000
   46.9850   34.6870   42.2100 N   0  0  0  0  0  0  0  0  0  0  0  0
   48.4250   34.8320   42.2780 C   0  0  0  0  0  0  0  0  0  0  0  0
   48.8090   35.6030   41.0140 C   0  0  0  0  0  0  0  0  0  0  0  0
   48.5110   34.7740   39.7890 C   0  0  0  0  0  0  0  0  0  0  0  0
   47.2580   33.9880   39.8630 C   0  0  0  0  0  0  0  0  0  0  0  0
   46.3300   34.4100   40.9650 C   0  0  1  0  0  0  0  0  0  0  0  0
   44.4940   35.9240   44.6990 C   0  0  0  0  0  0  0  0  0  0  0  0
   45.2490   35.8740   43.5160 C   0  0  0  0  0  0  0  0  0  0  0  0
   46.1820   34.8140   43.3700 C   0  0  0  0  0  0  0  0  0  0  0  0
   46.2840   33.9170   44.3860 N   0  0  0  0  0  0  0  0  0  0  0  0
   45.5380   33.9940   45.5170 C   0  0  0  0  0  0  0  0  0  0  0  0
   44.6480   35.0010   45.6630 N   0  0  0  0  0  0  0  0  0  0  0  0
   45.1820   33.5800   41.0770 N   0  0  0  0  0  0  0  0  0  0  0  0
   43.9900   34.1620   41.5790 C   0  0  0  0  0  0  0  0  0  0  0  0
   43.1510   32.9000   41.8490 C   0  0  0  0  0  0  0  0  0  0  0  0
   44.1740   32.0900   42.6210 C   0  0  0  0  0  0  0  0  0  0  0  0
   45.4230   32.3390   41.7760 C   0  0  0  0  0  0  0  0  0  0  0  0
   48.7141   35.3961   43.1770 H   0  0  0  0  0  0  0  0  0  0  0  0
   48.9345   33.8589   42.3375 H   0  0  0  0  0  0  0  0  0  0  0  0
   48.2319   36.5384   40.9692 H   0  0  0  0  0  0  0  0  0  0  0  0
   49.8854   35.8277   41.0430 H   0  0  0  0  0  0  0  0  0  0  0  0
   49.3460   34.0741   39.6376 H   0  0  0  0  0  0  0  0  0  0  0  0
   48.3841   35.4830   38.9576 H   0  0  0  0  0  0  0  0  0  0  0  0
   46.7271   34.0945   38.9055 H   0  0  0  0  0  0  0  0  0  0  0  0
   47.5493   32.9489   40.0761 H   0  0  0  0  0  0  0  0  0  0  0  0
   45.9402   35.3905   40.6541 H   0  0  0  0  0  0  0  0  0  0  0  0
   43.7629   36.7339   44.8390 H   0  0  0  0  0  0  0  0  0  0  0  0
   45.1217   36.6313   42.7284 H   0  0  0  0  0  0  0  0  0  0  0  0
   45.6568   33.2414   46.3104 H   0  0  0  0  0  0  0  0  0  0  0  0
   44.1741   34.7319   42.5017 H   0  0  0  0  0  0  0  0  0  0  0  0
   43.5168   34.8902   40.9038 H   0  0  0  0  0  0  0  0  0  0  0  0
   42.2589   33.1203   42.4537 H   0  0  0  0  0  0  0  0  0  0  0  0
   42.7377   32.4088   40.9557 H   0  0  0  0  0  0  0  0  0  0  0  0
   44.2973   32.4646   43.6479 H   0  0  0  0  0  0  0  0  0  0  0  0
   43.9138   31.0293   42.7524 H   0  0  0  0  0  0  0  0  0  0  0  0
   45.5710   31.5178   41.0593 H   0  0  0  0  0  0  0  0  0  0  0  0
   46.3291   32.3928   42.3974 H   0  0  0  0  0  0  0  0  0  0  0  0
  1  2  1  0
  1  9  1  0
  3  2  1  0
  4  5  1  0
  4  3  1  0
  5  6  1  0
  6 13  1  0
  6  1  1  0
  7 12  2  0
  8  7  1  0
  9  8  2  0
  9 10  1  0
 10 11  2  0
 11 12  1  0
 13 14  1  0
 13 17  1  0
 14 15  1  0
 15 16  1  0
 17 16  1  0
  2 18  1  0
  2 19  1  0
  3 20  1  0
  3 21  1  0
  4 22  1  0
  4 23  1  0
  5 24  1  0
  5 25  1  0
  6 26  1  6
  7 27  1  0
  8 28  1  0
 11 29  1  0
 14 30  1  0
 14 31  1  0
 15 32  1  0
 15 33  1  0
 16 34  1  0
 16 35  1  0
 17 36  1  0
 17 37  1  0
M  ISO  8  18  13  19  13  20  13  21  13  22  13  23  13  24  13  25  13
M  ISO  8  26  13  27  14  28  14  29  14  30  13  31  13  32  13  33  13
M  ISO  4  34  13  35  13  36  13  37  13
M  END
>  <minimizedAffinity>  (1) 
-5.19683838

>  <minimizedRMSD>  (1) 
0.647389472

$$$$
