
     RDKit          3D

 32 33  0  0  0  0  0  0  0  0999 V2000
   46.2120   31.9370   47.2270 C   0  0  0  0  0  0  0  0  0  0  0  0
   45.6470   32.3830   48.4080 C   0  0  0  0  0  0  0  0  0  0  0  0
   45.1190   31.5380   49.3480 C   0  0  0  0  0  0  0  0  0  0  0  0
   45.1480   30.1890   49.1150 C   0  0  0  0  0  0  0  0  0  0  0  0
   45.7070   29.7450   47.9480 C   0  0  0  0  0  0  0  0  0  0  0  0
   46.2530   30.5700   46.9740 C   0  0  0  0  0  0  0  0  0  0  0  0
   46.7940   32.7200   46.1160 C   0  0  0  0  0  0  0  0  0  0  0  0
   45.9430   32.5980   44.8660 C   0  0  0  0  0  0  0  0  0  0  0  0
   44.5700   36.0110   44.8090 C   0  0  0  0  0  0  0  0  0  0  0  0
   44.9930   36.4770   43.5320 C   0  0  0  0  0  0  0  0  0  0  0  0
   45.7500   35.6070   42.7540 C   0  0  0  0  0  0  0  0  0  0  0  0
   46.0590   34.3720   43.2110 N   0  0  0  0  0  0  0  0  0  0  0  0
   45.6140   33.9940   44.4500 C   0  0  0  0  0  0  0  0  0  0  0  0
   44.8960   34.7740   45.2350 N   0  0  0  0  0  0  0  0  0  0  0  0
   46.7370   29.7960   45.9300 O   0  0  0  0  0  0  0  0  0  0  0  0
   49.2120   29.4080   46.8690 O   0  0  0  0  0  0  0  0  0  0  0  0
   48.2930   29.2530   45.6560 P   0  0  0  0  0  0  0  0  0  0  0  0
   49.0270   29.9530   44.2970 O   0  0  0  0  0  0  0  0  0  0  0  0
   48.1810   27.5790   45.3210 O   0  0  0  0  0  0  0  0  0  0  0  0
   45.6204   33.4656   48.6012 H   0  0  0  0  0  0  0  0  0  0  0  0
   44.6792   31.9364   50.2742 H   0  0  0  0  0  0  0  0  0  0  0  0
   44.7327   29.4808   49.8471 H   0  0  0  0  0  0  0  0  0  0  0  0
   45.7251   28.6598   47.7691 H   0  0  0  0  0  0  0  0  0  0  0  0
   46.8507   33.7780   46.4116 H   0  0  0  0  0  0  0  0  0  0  0  0
   47.7986   32.3286   45.8977 H   0  0  0  0  0  0  0  0  0  0  0  0
   46.5041   32.0851   44.0709 H   0  0  0  0  0  0  0  0  0  0  0  0
   45.0326   32.0105   45.0559 H   0  0  0  0  0  0  0  0  0  0  0  0
   43.9700   36.6680   45.4559 H   0  0  0  0  0  0  0  0  0  0  0  0
   44.7318   37.4841   43.1750 H   0  0  0  0  0  0  0  0  0  0  0  0
   46.0995   35.9255   41.7608 H   0  0  0  0  0  0  0  0  0  0  0  0
   49.7112   30.6055   44.5908 H   0  0  0  0  0  0  0  0  0  0  0  0
   48.1472   27.0738   46.1717 H   0  0  0  0  0  0  0  0  0  0  0  0
  1  2  2  0
  2  3  1  0
  4  3  2  0
  5  4  1  0
  6  1  1  0
  6  5  2  0
  7  1  1  0
  8  7  1  0
  9 14  2  0
 10  9  1  0
 11 12  1  0
 11 10  2  0
 12 13  2  0
 13  8  1  0
 13 14  1  0
 15  6  1  0
 17 15  1  0
 17 16  2  0
 18 17  1  0
 19 17  1  0
  2 20  1  0
  3 21  1  0
  4 22  1  0
  5 23  1  0
  7 24  1  0
  7 25  1  0
  8 26  1  0
  8 27  1  0
  9 28  1  0
 10 29  1  0
 11 30  1  0
 18 31  1  0
 19 32  1  0
M  ISO  8  20  14  21  14  22  14  23  14  24   8  25   8  26   8  27   8
M  ISO  5  28  14  29  14  30  14  31   3  32   3
M  END
>  <minimizedAffinity>  (1) 
-4.63361502

>  <minimizedRMSD>  (1) 
0.835087478

$$$$
