
     RDKit          3D

 36 38  0  0  1  0  0  0  0  0999 V2000
   46.7640   34.5380   42.2790 N   0  0  0  0  0  0  0  0  0  0  0  0
   48.2260   34.6140   42.3030 C   0  0  0  0  0  0  0  0  0  0  0  0
   48.5530   35.3790   41.0010 C   0  0  0  0  0  0  0  0  0  0  0  0
   48.1960   34.5180   39.8250 C   0  0  0  0  0  0  0  0  0  0  0  0
   46.8880   33.8240   39.9490 C   0  0  0  0  0  0  0  0  0  0  0  0
   46.0010   34.2640   41.0810 C   0  0  1  0  0  0  0  0  0  0  0  0
   44.4580   35.9620   44.8660 C   0  0  0  0  0  0  0  0  0  0  0  0
   45.1400   35.8470   43.6400 C   0  0  0  0  0  0  0  0  0  0  0  0
   46.0240   34.7430   43.4870 C   0  0  0  0  0  0  0  0  0  0  0  0
   46.1400   33.8890   44.5330 N   0  0  0  0  0  0  0  0  0  0  0  0
   45.4680   34.0350   45.6910 C   0  0  0  0  0  0  0  0  0  0  0  0
   44.6210   35.0800   45.8550 N   0  0  0  0  0  0  0  0  0  0  0  0
   45.0980   33.2760   41.3450 O   0  0  0  0  0  0  0  0  0  0  0  0
   43.1160   35.5140   40.4840 Cl  0  0  0  0  0  0  0  0  0  0  0  0
   42.6900   33.9360   41.0440 C   0  0  0  0  0  0  0  0  0  0  0  0
   43.7680   33.1380   41.3610 C   0  0  0  0  0  0  0  0  0  0  0  0
   43.4320   31.8520   41.8190 C   0  0  0  0  0  0  0  0  0  0  0  0
   42.1080   31.4340   41.9370 C   0  0  0  0  0  0  0  0  0  0  0  0
   41.1160   32.2970   41.5990 C   0  0  0  0  0  0  0  0  0  0  0  0
   41.3720   33.5670   41.1450 C   0  0  0  0  0  0  0  0  0  0  0  0
   40.1550   34.7330   40.6900 Cl  0  0  0  0  0  0  0  0  0  0  0  0
   48.5792   35.1666   43.1861 H   0  0  0  0  0  0  0  0  0  0  0  0
   48.7114   33.6286   42.3616 H   0  0  0  0  0  0  0  0  0  0  0  0
   47.9709   36.3117   40.9653 H   0  0  0  0  0  0  0  0  0  0  0  0
   49.6256   35.6212   40.9720 H   0  0  0  0  0  0  0  0  0  0  0  0
   48.9802   33.7559   39.7055 H   0  0  0  0  0  0  0  0  0  0  0  0
   48.1153   35.1887   38.9569 H   0  0  0  0  0  0  0  0  0  0  0  0
   46.3357   33.9812   39.0108 H   0  0  0  0  0  0  0  0  0  0  0  0
   47.1343   32.7735   40.1628 H   0  0  0  0  0  0  0  0  0  0  0  0
   45.4909   35.1908   40.7797 H   0  0  0  0  0  0  0  0  0  0  0  0
   43.7683   36.8060   45.0141 H   0  0  0  0  0  0  0  0  0  0  0  0
   44.9953   36.5807   42.8333 H   0  0  0  0  0  0  0  0  0  0  0  0
   45.6066   33.3063   46.5033 H   0  0  0  0  0  0  0  0  0  0  0  0
   44.2381   31.1552   42.0923 H   0  0  0  0  0  0  0  0  0  0  0  0
   41.8707   30.4223   42.2978 H   0  0  0  0  0  0  0  0  0  0  0  0
   40.0708   31.9671   41.6922 H   0  0  0  0  0  0  0  0  0  0  0  0
  1  2  1  0
  1  9  1  0
  3  2  1  0
  4  5  1  0
  4  3  1  0
  5  6  1  0
  6 13  1  0
  6  1  1  0
  7 12  2  0
  8  7  1  0
  9  8  2  0
  9 10  1  0
 10 11  2  0
 11 12  1  0
 13 16  1  0
 14 15  1  0
 15 20  2  0
 15 16  1  0
 16 17  2  0
 17 18  1  0
 19 18  2  0
 20 19  1  0
 21 20  1  0
  2 22  1  0
  2 23  1  0
  3 24  1  0
  3 25  1  0
  4 26  1  0
  4 27  1  0
  5 28  1  0
  5 29  1  0
  6 30  1  6
  7 31  1  0
  8 32  1  0
 11 33  1  0
 17 34  1  0
 18 35  1  0
 19 36  1  0
M  ISO  8  22  13  23  13  24  13  25  13  26  13  27  13  28  13  29  13
M  ISO  7  30  13  31  14  32  14  33  14  34  14  35  14  36  14
M  END
>  <minimizedAffinity>  (1) 
-6.11110687

>  <minimizedRMSD>  (1) 
0.283244669

$$$$
