
     RDKit          3D

 25 26  0  0  0  0  0  0  0  0999 V2000
   47.0020   34.6590   41.8000 C   0  0  0  0  0  0  0  0  0  0  0  0
   48.1610   35.4120   41.7190 C   0  0  0  0  0  0  0  0  0  0  0  0
   48.8640   35.4180   40.5330 C   0  0  0  0  0  0  0  0  0  0  0  0
   48.4180   34.6920   39.4660 C   0  0  0  0  0  0  0  0  0  0  0  0
   47.2790   33.9370   39.5100 C   0  0  0  0  0  0  0  0  0  0  0  0
   46.5800   33.9470   40.7260 C   0  0  0  0  0  0  0  0  0  0  0  0
   44.7830   35.5650   44.7170 C   0  0  0  0  0  0  0  0  0  0  0  0
   45.3970   35.6530   43.4500 C   0  0  0  0  0  0  0  0  0  0  0  0
   46.2970   34.6870   43.0800 C   0  0  0  0  0  0  0  0  0  0  0  0
   46.5520   33.6770   43.9750 N   0  0  0  0  0  0  0  0  0  0  0  0
   45.9530   33.6080   45.1850 C   0  0  0  0  0  0  0  0  0  0  0  0
   45.0580   34.5630   45.5610 N   0  0  0  0  0  0  0  0  0  0  0  0
   43.8810   36.5830   45.0190 O   0  0  0  0  0  0  0  0  0  0  0  0
   44.0060   33.4160   40.6730 C   0  0  0  0  0  0  0  0  0  0  0  0
   43.5050   34.4430   40.2140 O   0  0  0  0  0  0  0  0  0  0  0  0
   45.3860   33.2080   40.9120 N   0  0  0  0  0  0  0  0  0  0  0  0
   48.5138   35.9937   42.5834 H   0  0  0  0  0  0  0  0  0  0  0  0
   49.7873   36.0096   40.4460 H   0  0  0  0  0  0  0  0  0  0  0  0
   48.9992   34.7156   38.5324 H   0  0  0  0  0  0  0  0  0  0  0  0
   46.9314   33.3561   38.6430 H   0  0  0  0  0  0  0  0  0  0  0  0
   45.1575   36.4835   42.7696 H   0  0  0  0  0  0  0  0  0  0  0  0
   46.1892   32.7783   45.8675 H   0  0  0  0  0  0  0  0  0  0  0  0
   43.7099   37.3037   44.3622 H   0  0  0  0  0  0  0  0  0  0  0  0
   43.3229   32.5894   40.9183 H   0  0  0  0  0  0  0  0  0  0  0  0
   45.5682   32.2831   41.3271 H   0  0  0  0  0  0  0  0  0  0  0  0
  1  9  1  0
  2  1  2  0
  3  2  1  0
  4  5  1  0
  4  3  2  0
  5  6  2  0
  6 16  1  0
  6  1  1  0
  7 13  1  0
  7 12  2  0
  8  7  1  0
  9  8  2  0
  9 10  1  0
 10 11  2  0
 11 12  1  0
 14 16  1  0
 15 14  2  0
  2 17  1  0
  3 18  1  0
  4 19  1  0
  5 20  1  0
  8 21  1  0
 11 22  1  0
 13 23  1  0
 14 24  1  0
 16 25  1  0
M  ISO  8  17  14  18  14  19  14  20  14  21  14  22  14  23   3  24   6
M  END
>  <minimizedAffinity>  (1) 
-4.81566191

>  <minimizedRMSD>  (1) 
0.53443563

$$$$
