
     RDKit          3D

 37 39  0  0  0  0  0  0  0  0999 V2000
   45.1910   34.3710   41.0430 C   0  0  0  0  0  0  0  0  0  0  0  0
   45.5150   35.0380   42.2210 C   0  0  0  0  0  0  0  0  0  0  0  0
   46.8690   35.3030   42.4910 C   0  0  0  0  0  0  0  0  0  0  0  0
   47.8270   34.9010   41.5950 C   0  0  0  0  0  0  0  0  0  0  0  0
   47.5220   34.2460   40.4360 C   0  0  0  0  0  0  0  0  0  0  0  0
   46.1700   33.9920   40.1860 C   0  0  0  0  0  0  0  0  0  0  0  0
   41.5150   34.7290   40.3200 C   0  0  0  0  0  0  0  0  0  0  0  0
   42.8610   35.1020   40.5030 C   0  0  0  0  0  0  0  0  0  0  0  0
   43.7830   34.1290   40.8290 C   0  0  0  0  0  0  0  0  0  0  0  0
   43.3210   32.8490   40.9540 N   0  0  0  0  0  0  0  0  0  0  0  0
   42.0300   32.5020   40.7760 C   0  0  0  0  0  0  0  0  0  0  0  0
   41.1160   33.4470   40.4580 N   0  0  0  0  0  0  0  0  0  0  0  0
   40.5020   35.7550   39.9700 C   0  0  0  0  0  0  0  0  0  0  0  0
   39.2940   35.0920   39.7210 F   0  0  0  0  0  0  0  0  0  0  0  0
   40.8930   36.2980   38.7400 F   0  0  0  0  0  0  0  0  0  0  0  0
   40.3350   36.7120   40.9430 F   0  0  0  0  0  0  0  0  0  0  0  0
   45.8740   32.0320   38.4800 C   0  0  0  0  0  0  0  0  0  0  0  0
   46.4840   31.1020   38.9910 O   0  0  0  0  0  0  0  0  0  0  0  0
   45.7210   33.3250   39.0230 N   0  0  0  0  0  0  0  0  0  0  0  0
   47.4610   32.6400   35.9580 Cl  0  0  0  0  0  0  0  0  0  0  0  0
   45.8400   31.9380   35.9430 C   0  0  0  0  0  0  0  0  0  0  0  0
   45.2660   31.7300   37.1870 C   0  0  0  0  0  0  0  0  0  0  0  0
   43.9910   31.1810   37.2950 C   0  0  0  0  0  0  0  0  0  0  0  0
   43.2600   30.8290   36.1650 C   0  0  0  0  0  0  0  0  0  0  0  0
   43.8640   31.0510   34.9220 C   0  0  0  0  0  0  0  0  0  0  0  0
   45.1330   31.5960   34.8120 C   0  0  0  0  0  0  0  0  0  0  0  0
   44.7295   35.3507   42.9247 H   0  0  0  0  0  0  0  0  0  0  0  0
   47.1580   35.8284   43.4132 H   0  0  0  0  0  0  0  0  0  0  0  0
   48.8826   35.1147   41.8189 H   0  0  0  0  0  0  0  0  0  0  0  0
   48.3054   33.9322   39.7304 H   0  0  0  0  0  0  0  0  0  0  0  0
   43.1715   36.1510   40.3879 H   0  0  0  0  0  0  0  0  0  0  0  0
   41.7209   31.4524   40.8892 H   0  0  0  0  0  0  0  0  0  0  0  0
   45.1402   33.9314   38.4264 H   0  0  0  0  0  0  0  0  0  0  0  0
   43.5538   31.0228   38.2919 H   0  0  0  0  0  0  0  0  0  0  0  0
   42.2522   30.3955   36.2448 H   0  0  0  0  0  0  0  0  0  0  0  0
   43.3155   30.7852   34.0063 H   0  0  0  0  0  0  0  0  0  0  0  0
   45.5770   31.7559   33.8184 H   0  0  0  0  0  0  0  0  0  0  0  0
  1  2  2  0
  2  3  1  0
  4  3  2  0
  5  4  1  0
  6  5  2  0
  6  1  1  0
  7 12  2  0
  7  8  1  0
  8  9  2  0
  9 10  1  0
  9  1  1  0
 11 10  2  0
 12 11  1  0
 13  7  1  0
 13 16  1  0
 14 13  1  0
 15 13  1  0
 17 18  2  0
 17 19  1  0
 19  6  1  0
 21 20  1  0
 21 22  2  0
 22 23  1  0
 22 17  1  0
 24 23  2  0
 25 24  1  0
 26 25  2  0
 26 21  1  0
  2 27  1  0
  3 28  1  0
  4 29  1  0
  5 30  1  0
  8 31  1  0
 11 32  1  0
 19 33  1  0
 23 34  1  0
 24 35  1  0
 25 36  1  0
 26 37  1  0
M  ISO  8  27  14  28  14  29  14  30  14  31  14  32  14  34  14  35  14
M  ISO  2  36  14  37  14
M  END
>  <minimizedAffinity>  (1) 
-6.12677765

>  <minimizedRMSD>  (1) 
0.63065362

$$$$
