
     RDKit          3D

 36 38  0  0  0  0  0  0  0  0999 V2000
   45.0930   34.4350   41.0690 C   0  0  0  0  0  0  0  0  0  0  0  0
   45.2490   35.0850   42.2890 C   0  0  0  0  0  0  0  0  0  0  0  0
   46.5290   35.3700   42.7380 C   0  0  0  0  0  0  0  0  0  0  0  0
   47.6100   35.0060   41.9720 C   0  0  0  0  0  0  0  0  0  0  0  0
   47.4820   34.3600   40.7550 C   0  0  0  0  0  0  0  0  0  0  0  0
   46.1820   34.0890   40.3340 C   0  0  0  0  0  0  0  0  0  0  0  0
   41.4750   34.7570   40.0620 C   0  0  0  0  0  0  0  0  0  0  0  0
   42.7680   35.1370   40.4490 C   0  0  0  0  0  0  0  0  0  0  0  0
   43.7250   34.1720   40.6660 C   0  0  0  0  0  0  0  0  0  0  0  0
   43.3400   32.8840   40.4830 N   0  0  0  0  0  0  0  0  0  0  0  0
   42.0970   32.5160   40.1110 C   0  0  0  0  0  0  0  0  0  0  0  0
   41.1580   33.4590   39.8980 N   0  0  0  0  0  0  0  0  0  0  0  0
   40.4370   35.7820   39.8250 C   0  0  0  0  0  0  0  0  0  0  0  0
   39.2450   35.1100   39.5150 F   0  0  0  0  0  0  0  0  0  0  0  0
   40.7860   36.4380   38.6470 F   0  0  0  0  0  0  0  0  0  0  0  0
   40.2490   36.6270   40.8730 F   0  0  0  0  0  0  0  0  0  0  0  0
   46.2270   32.1560   38.5540 C   0  0  0  0  0  0  0  0  0  0  0  0
   46.8930   31.2750   39.1270 O   0  0  0  0  0  0  0  0  0  0  0  0
   45.9140   33.4390   39.1110 N   0  0  0  0  0  0  0  0  0  0  0  0
   45.6900   31.9430   37.2100 C   0  0  0  0  0  0  0  0  0  0  0  0
   44.5360   31.2030   37.0750 C   0  0  0  0  0  0  0  0  0  0  0  0
   43.9470   30.9440   35.8560 C   0  0  0  0  0  0  0  0  0  0  0  0
   44.5100   31.4310   34.6930 C   0  0  0  0  0  0  0  0  0  0  0  0
   45.6620   32.1660   34.8680 C   0  0  0  0  0  0  0  0  0  0  0  0
   46.2190   32.4080   36.0680 N   0  0  0  0  0  0  0  0  0  0  0  0
   44.3707   35.3682   42.8877 H   0  0  0  0  0  0  0  0  0  0  0  0
   46.6781   35.8832   43.6994 H   0  0  0  0  0  0  0  0  0  0  0  0
   48.6197   35.2379   42.3418 H   0  0  0  0  0  0  0  0  0  0  0  0
   48.3581   34.0762   40.1534 H   0  0  0  0  0  0  0  0  0  0  0  0
   43.0162   36.2008   40.5785 H   0  0  0  0  0  0  0  0  0  0  0  0
   41.8509   31.4517   39.9821 H   0  0  0  0  0  0  0  0  0  0  0  0
   45.3637   34.0243   38.4664 H   0  0  0  0  0  0  0  0  0  0  0  0
   44.0624   30.8000   37.9823 H   0  0  0  0  0  0  0  0  0  0  0  0
   43.0244   30.3467   35.8095 H   0  0  0  0  0  0  0  0  0  0  0  0
   44.0716   31.2460   33.7013 H   0  0  0  0  0  0  0  0  0  0  0  0
   46.1545   32.5786   33.9751 H   0  0  0  0  0  0  0  0  0  0  0  0
  1  2  2  0
  2  3  1  0
  4  3  2  0
  5  4  1  0
  6  5  2  0
  6  1  1  0
  7  8  2  0
  8  9  1  0
  9  1  1  0
 10  9  2  0
 11 10  1  0
 12  7  1  0
 12 11  2  0
 13  7  1  0
 13 16  1  0
 14 13  1  0
 15 13  1  0
 17 19  1  0
 17 18  2  0
 19  6  1  0
 20 17  1  0
 21 20  2  0
 22 21  1  0
 23 24  1  0
 23 22  2  0
 24 25  2  0
 25 20  1  0
  2 26  1  0
  3 27  1  0
  4 28  1  0
  5 29  1  0
  8 30  1  0
 11 31  1  0
 19 32  1  0
 21 33  1  0
 22 34  1  0
 23 35  1  0
 24 36  1  0
M  ISO  8  26  14  27  14  28  14  29  14  30  14  31  14  33  14  34  14
M  ISO  2  35  14  36  14
M  END
>  <minimizedAffinity>  (1) 
-5.96116114

>  <minimizedRMSD>  (1) 
0.751496315

$$$$
