
     RDKit          3D

 37 39  0  0  0  0  0  0  0  0999 V2000
   45.2280   34.4090   41.0450 C   0  0  0  0  0  0  0  0  0  0  0  0
   45.5050   35.0560   42.2450 C   0  0  0  0  0  0  0  0  0  0  0  0
   46.8290   35.3290   42.5660 C   0  0  0  0  0  0  0  0  0  0  0  0
   47.8250   34.9480   41.6840 C   0  0  0  0  0  0  0  0  0  0  0  0
   47.5670   34.3120   40.5030 C   0  0  0  0  0  0  0  0  0  0  0  0
   46.2320   34.0500   40.2050 C   0  0  0  0  0  0  0  0  0  0  0  0
   41.5530   34.7400   40.2480 C   0  0  0  0  0  0  0  0  0  0  0  0
   42.8850   35.1160   40.4930 C   0  0  0  0  0  0  0  0  0  0  0  0
   43.8200   34.1570   40.7720 C   0  0  0  0  0  0  0  0  0  0  0  0
   43.3850   32.8720   40.7930 N   0  0  0  0  0  0  0  0  0  0  0  0
   42.1050   32.5100   40.5590 C   0  0  0  0  0  0  0  0  0  0  0  0
   41.1850   33.4550   40.2840 N   0  0  0  0  0  0  0  0  0  0  0  0
   40.5360   35.7730   39.9440 C   0  0  0  0  0  0  0  0  0  0  0  0
   39.3240   35.1240   39.7170 F   0  0  0  0  0  0  0  0  0  0  0  0
   40.8830   36.3370   38.7240 F   0  0  0  0  0  0  0  0  0  0  0  0
   40.3970   36.7090   40.9370 F   0  0  0  0  0  0  0  0  0  0  0  0
   46.2760   32.2540   38.2960 C   0  0  0  0  0  0  0  0  0  0  0  0
   47.2200   31.5170   38.6400 O   0  0  0  0  0  0  0  0  0  0  0  0
   45.8460   33.4140   39.0110 N   0  0  0  0  0  0  0  0  0  0  0  0
   45.5620   31.9030   37.0750 C   0  0  0  0  0  0  0  0  0  0  0  0
   44.3980   31.1410   36.9400 C   0  0  0  0  0  0  0  0  0  0  0  0
   43.7600   30.8400   35.7790 C   0  0  0  0  0  0  0  0  0  0  0  0
   44.3410   31.3490   34.6420 C   0  0  0  0  0  0  0  0  0  0  0  0
   45.4810   32.1110   34.6260 C   0  0  0  0  0  0  0  0  0  0  0  0
   46.0440   32.3560   35.8550 C   0  0  0  0  0  0  0  0  0  0  0  0
   44.6916   35.3458   42.9265 H   0  0  0  0  0  0  0  0  0  0  0  0
   47.0816   35.8401   43.5067 H   0  0  0  0  0  0  0  0  0  0  0  0
   48.8708   35.1670   41.9456 H   0  0  0  0  0  0  0  0  0  0  0  0
   48.3769   34.0200   39.8183 H   0  0  0  0  0  0  0  0  0  0  0  0
   43.1744   36.1767   40.4606 H   0  0  0  0  0  0  0  0  0  0  0  0
   41.8153   31.4494   40.5928 H   0  0  0  0  0  0  0  0  0  0  0  0
   45.0691   33.8998   38.5406 H   0  0  0  0  0  0  0  0  0  0  0  0
   43.9545   30.7458   37.8658 H   0  0  0  0  0  0  0  0  0  0  0  0
   42.8436   30.2322   35.7508 H   0  0  0  0  0  0  0  0  0  0  0  0
   43.8581   31.1299   33.6783 H   0  0  0  0  0  0  0  0  0  0  0  0
   45.9150   32.4995   33.6929 H   0  0  0  0  0  0  0  0  0  0  0  0
   46.9591   32.9661   35.8737 H   0  0  0  0  0  0  0  0  0  0  0  0
  1  2  2  0
  2  3  1  0
  4  3  2  0
  5  4  1  0
  6  5  2  0
  6  1  1  0
  7 12  2  0
  7  8  1  0
  8  9  2  0
  9 10  1  0
  9  1  1  0
 11 10  2  0
 12 11  1  0
 13  7  1  0
 13 16  1  0
 14 13  1  0
 15 13  1  0
 17 18  2  0
 17 19  1  0
 19  6  1  0
 20 17  1  0
 21 20  2  0
 22 21  1  0
 23 22  2  0
 24 23  1  0
 24 25  2  0
 25 20  1  0
  2 26  1  0
  3 27  1  0
  4 28  1  0
  5 29  1  0
  8 30  1  0
 11 31  1  0
 19 32  1  0
 21 33  1  0
 22 34  1  0
 23 35  1  0
 24 36  1  0
 25 37  1  0
M  ISO  8  26  14  27  14  28  14  29  14  30  14  31  14  33  14  34  14
M  ISO  3  35  14  36  14  37  14
M  END
>  <minimizedAffinity>  (1) 
-6.06208467

>  <minimizedRMSD>  (1) 
0.870468199

$$$$
