
     RDKit          3D

 26 27  0  0  0  0  0  0  0  0999 V2000
   47.8600   34.7870   42.4190 C   0  0  0  0  0  0  0  0  0  0  0  0
   48.0690   33.5300   43.0240 C   0  0  0  0  0  0  0  0  0  0  0  0
   47.0830   33.0560   43.9030 C   0  0  0  0  0  0  0  0  0  0  0  0
   45.9890   33.8390   44.1140 N   0  0  0  0  0  0  0  0  0  0  0  0
   45.8160   35.0210   43.5320 C   0  0  0  0  0  0  0  0  0  0  0  0
   46.7440   35.4960   42.6880 N   0  0  0  0  0  0  0  0  0  0  0  0
   46.6420   33.1580   46.8710 Cl  0  0  0  0  0  0  0  0  0  0  0  0
   47.0220   31.7080   45.9350 C   0  0  0  0  0  0  0  0  0  0  0  0
   47.2030   31.7860   44.5700 C   0  0  0  0  0  0  0  0  0  0  0  0
   47.4930   30.5870   43.9610 C   0  0  0  0  0  0  0  0  0  0  0  0
   47.5900   29.4070   44.6900 C   0  0  0  0  0  0  0  0  0  0  0  0
   47.4040   29.3730   46.0400 C   0  0  0  0  0  0  0  0  0  0  0  0
   47.5550   27.8210   46.8320 Cl  0  0  0  0  0  0  0  0  0  0  0  0
   47.1110   30.5640   46.6780 C   0  0  0  0  0  0  0  0  0  0  0  0
   48.9140   35.2790   41.4900 C   0  0  0  0  0  0  0  0  0  0  0  0
   48.5600   35.1670   40.1890 F   0  0  0  0  0  0  0  0  0  0  0  0
   49.2110   36.6100   41.8280 F   0  0  0  0  0  0  0  0  0  0  0  0
   50.1100   34.5770   41.7610 F   0  0  0  0  0  0  0  0  0  0  0  0
   44.6020   35.8290   43.8000 C   0  0  0  0  0  0  0  0  0  0  0  0
   43.6130   35.5560   42.8840 F   0  0  0  0  0  0  0  0  0  0  0  0
   44.9110   37.2020   43.7670 F   0  0  0  0  0  0  0  0  0  0  0  0
   44.1030   35.6050   45.0640 F   0  0  0  0  0  0  0  0  0  0  0  0
   48.9741   32.9413   42.8139 H   0  0  0  0  0  0  0  0  0  0  0  0
   47.6517   30.5613   42.8728 H   0  0  0  0  0  0  0  0  0  0  0  0
   47.8242   28.4715   44.1608 H   0  0  0  0  0  0  0  0  0  0  0  0
   46.9520   30.5906   47.7661 H   0  0  0  0  0  0  0  0  0  0  0  0
  1  6  2  0
  1  2  1  0
  2  3  2  0
  3  4  1  0
  3  9  1  0
  5 19  1  0
  5  4  2  0
  6  5  1  0
  8 14  2  0
  8  7  1  0
  9  8  1  0
 10  9  2  0
 10 11  1  0
 11 12  2  0
 12 14  1  0
 12 13  1  0
 15 18  1  0
 15 17  1  0
 15  1  1  0
 16 15  1  0
 19 22  1  0
 20 19  1  0
 21 19  1  0
  2 23  1  0
 10 24  1  0
 11 25  1  0
 14 26  1  0
M  ISO  4  23  14  24  14  25  14  26  14
M  END
>  <minimizedAffinity>  (1) 
-5.96112776

>  <minimizedRMSD>  (1) 
0.301582009

$$$$
