
     RDKit          3D

 16 16  0  0  0  0  0  0  0  0999 V2000
   47.8400   34.7900   42.4180 C   0  0  0  0  0  0  0  0  0  0  0  0
   48.1180   33.5660   43.0640 C   0  0  0  0  0  0  0  0  0  0  0  0
   47.1780   33.1040   44.0170 C   0  0  0  0  0  0  0  0  0  0  0  0
   46.0730   33.8720   44.2440 N   0  0  0  0  0  0  0  0  0  0  0  0
   45.8470   35.0280   43.6070 C   0  0  0  0  0  0  0  0  0  0  0  0
   46.7270   35.4810   42.7010 N   0  0  0  0  0  0  0  0  0  0  0  0
   48.8390   35.2600   41.4180 C   0  0  0  0  0  0  0  0  0  0  0  0
   48.3790   35.1650   40.1370 F   0  0  0  0  0  0  0  0  0  0  0  0
   49.2000   36.5700   41.7390 F   0  0  0  0  0  0  0  0  0  0  0  0
   50.0210   34.5140   41.5750 F   0  0  0  0  0  0  0  0  0  0  0  0
   44.6270   35.8320   43.8860 C   0  0  0  0  0  0  0  0  0  0  0  0
   43.6360   35.5730   42.9770 F   0  0  0  0  0  0  0  0  0  0  0  0
   44.9350   37.1950   43.9220 F   0  0  0  0  0  0  0  0  0  0  0  0
   44.1220   35.5550   45.1480 F   0  0  0  0  0  0  0  0  0  0  0  0
   49.0292   32.9935   42.8360 H   0  0  0  0  0  0  0  0  0  0  0  0
   47.3333   32.1579   44.5562 H   0  0  0  0  0  0  0  0  0  0  0  0
  1  6  2  0
  1  2  1  0
  2  3  2  0
  3  4  1  0
  5 11  1  0
  5  4  2  0
  6  5  1  0
  7 10  1  0
  7  9  1  0
  7  1  1  0
  8  7  1  0
 11 13  1  0
 11 14  1  0
 12 11  1  0
  2 15  1  0
  3 16  1  0
M  ISO  2  15  14  16  14
M  END
>  <minimizedAffinity>  (1) 
-4.96175194

>  <minimizedRMSD>  (1) 
0.604400098

$$$$
