
     RDKit          3D

 19 19  0  0  0  0  0  0  0  0999 V2000
   47.8080   34.7720   42.4110 C   0  0  0  0  0  0  0  0  0  0  0  0
   48.0400   33.5390   43.0500 C   0  0  0  0  0  0  0  0  0  0  0  0
   47.0770   33.0970   43.9770 C   0  0  0  0  0  0  0  0  0  0  0  0
   45.9880   33.8840   44.1960 N   0  0  0  0  0  0  0  0  0  0  0  0
   45.8080   35.0490   43.5670 C   0  0  0  0  0  0  0  0  0  0  0  0
   46.7100   35.4910   42.6810 N   0  0  0  0  0  0  0  0  0  0  0  0
   48.8350   35.2270   41.4320 C   0  0  0  0  0  0  0  0  0  0  0  0
   48.4270   35.1320   40.1450 F   0  0  0  0  0  0  0  0  0  0  0  0
   49.2080   36.5360   41.7590 F   0  0  0  0  0  0  0  0  0  0  0  0
   50.0100   34.4760   41.6360 F   0  0  0  0  0  0  0  0  0  0  0  0
   44.6040   35.8930   43.8270 C   0  0  0  0  0  0  0  0  0  0  0  0
   43.5960   35.6090   42.9330 F   0  0  0  0  0  0  0  0  0  0  0  0
   44.9280   37.2460   43.8060 F   0  0  0  0  0  0  0  0  0  0  0  0
   44.1030   35.6670   45.1000 F   0  0  0  0  0  0  0  0  0  0  0  0
   47.2340   31.8230   44.6920 C   0  0  0  0  0  0  0  0  0  0  0  0
   46.0290   31.1380   44.5730 F   0  0  0  0  0  0  0  0  0  0  0  0
   47.4080   32.0200   46.0650 F   0  0  0  0  0  0  0  0  0  0  0  0
   48.2820   31.0880   44.2070 F   0  0  0  0  0  0  0  0  0  0  0  0
   48.9393   32.9438   42.8332 H   0  0  0  0  0  0  0  0  0  0  0  0
  1  6  2  0
  1  2  1  0
  2  3  2  0
  3  4  1  0
  3 15  1  0
  5 11  1  0
  5  4  2  0
  6  5  1  0
  7 10  1  0
  7  9  1  0
  7  1  1  0
  8  7  1  0
 11 14  1  0
 12 11  1  0
 13 11  1  0
 15 17  1  0
 16 15  1  0
 18 15  1  0
  2 19  1  0
M  ISO  1  19  14
M  END
>  <minimizedAffinity>  (1) 
-5.36301899

>  <minimizedRMSD>  (1) 
0.13506256

$$$$
