
     RDKit          3D

 30 31  0  0  0  0  0  0  0  0999 V2000
   47.9370   34.5020   42.4140 C   0  0  0  0  0  0  0  0  0  0  0  0
   48.0160   33.4980   43.3940 C   0  0  0  0  0  0  0  0  0  0  0  0
   46.9610   33.3870   44.3220 C   0  0  0  0  0  0  0  0  0  0  0  0
   45.9320   34.2710   44.1970 N   0  0  0  0  0  0  0  0  0  0  0  0
   45.8800   35.2130   43.2580 C   0  0  0  0  0  0  0  0  0  0  0  0
   46.8770   35.3250   42.3740 N   0  0  0  0  0  0  0  0  0  0  0  0
   46.9870   32.3980   45.3280 N   0  0  0  0  0  0  0  0  0  0  0  0
   47.3150   31.0400   44.9410 C   0  0  0  0  0  0  0  0  0  0  0  0
   46.5820   30.0830   45.8360 C   0  0  0  0  0  0  0  0  0  0  0  0
   47.0590   30.3680   47.1980 N   0  0  0  0  0  0  0  0  0  0  0  0
   46.3760   31.5890   47.5780 C   0  0  0  0  0  0  0  0  0  0  0  0
   46.6940   32.7570   46.6780 C   0  0  0  0  0  0  0  0  0  0  0  0
   49.0620   34.6020   41.4430 C   0  0  0  0  0  0  0  0  0  0  0  0
   49.1600   33.5150   40.6390 F   0  0  0  0  0  0  0  0  0  0  0  0
   48.9130   35.7910   40.7190 F   0  0  0  0  0  0  0  0  0  0  0  0
   50.2560   34.8030   42.1710 F   0  0  0  0  0  0  0  0  0  0  0  0
   44.7310   36.1550   43.1630 C   0  0  0  0  0  0  0  0  0  0  0  0
   44.0610   36.0270   41.9810 F   0  0  0  0  0  0  0  0  0  0  0  0
   45.1540   37.4740   43.3670 F   0  0  0  0  0  0  0  0  0  0  0  0
   43.8150   35.9340   44.1900 F   0  0  0  0  0  0  0  0  0  0  0  0
   48.8785   32.8166   43.4358 H   0  0  0  0  0  0  0  0  0  0  0  0
   47.0137   30.8717   43.8965 H   0  0  0  0  0  0  0  0  0  0  0  0
   48.3991   30.8794   45.0358 H   0  0  0  0  0  0  0  0  0  0  0  0
   45.4966   30.2481   45.7672 H   0  0  0  0  0  0  0  0  0  0  0  0
   46.7677   29.0369   45.5511 H   0  0  0  0  0  0  0  0  0  0  0  0
   46.8123   29.5994   47.8377 H   0  0  0  0  0  0  0  0  0  0  0  0
   45.2916   31.4073   47.5438 H   0  0  0  0  0  0  0  0  0  0  0  0
   46.7210   31.8537   48.5884 H   0  0  0  0  0  0  0  0  0  0  0  0
   47.5674   33.2824   47.0917 H   0  0  0  0  0  0  0  0  0  0  0  0
   45.7912   33.3847   46.6472 H   0  0  0  0  0  0  0  0  0  0  0  0
  1  2  2  0
  2  3  1  0
  3  7  1  0
  4  3  2  0
  5  4  1  0
  6  1  1  0
  6  5  2  0
  7 12  1  0
  8  7  1  0
  8  9  1  0
  9 10  1  0
 10 11  1  0
 12 11  1  0
 13 16  1  0
 13  1  1  0
 14 13  1  0
 15 13  1  0
 17  5  1  0
 17 19  1  0
 17 20  1  0
 18 17  1  0
  2 21  1  0
  8 22  1  0
  8 23  1  0
  9 24  1  0
  9 25  1  0
 10 26  1  0
 11 27  1  0
 11 28  1  0
 12 29  1  0
 12 30  1  0
M  ISO  8  21  14  22  13  23  13  24  13  25  13  26   5  27  13  28  13
M  ISO  2  29  13  30  13
M  END
>  <minimizedAffinity>  (1) 
-5.76396704

>  <minimizedRMSD>  (1) 
1.1275866

$$$$
