
     RDKit          3D

 24 24  0  0  0  0  0  0  0  0999 V2000
   47.8000   34.7550   42.4560 C   0  0  0  0  0  0  0  0  0  0  0  0
   48.0950   33.5490   43.1080 C   0  0  0  0  0  0  0  0  0  0  0  0
   47.1870   33.1020   44.0820 C   0  0  0  0  0  0  0  0  0  0  0  0
   46.0860   33.8480   44.3410 N   0  0  0  0  0  0  0  0  0  0  0  0
   45.8380   35.0050   43.6900 C   0  0  0  0  0  0  0  0  0  0  0  0
   46.6930   35.4470   42.7580 N   0  0  0  0  0  0  0  0  0  0  0  0
   48.7770   35.2150   41.4240 C   0  0  0  0  0  0  0  0  0  0  0  0
   48.2930   35.1390   40.1630 F   0  0  0  0  0  0  0  0  0  0  0  0
   49.1550   36.5290   41.7440 F   0  0  0  0  0  0  0  0  0  0  0  0
   49.9580   34.4670   41.5560 F   0  0  0  0  0  0  0  0  0  0  0  0
   44.6230   35.8030   43.9950 C   0  0  0  0  0  0  0  0  0  0  0  0
   43.6250   35.5730   43.0910 F   0  0  0  0  0  0  0  0  0  0  0  0
   44.9370   37.1660   44.0460 F   0  0  0  0  0  0  0  0  0  0  0  0
   44.1240   35.5090   45.2540 F   0  0  0  0  0  0  0  0  0  0  0  0
   47.4510   31.8910   44.7590 N   0  0  0  0  0  0  0  0  0  0  0  0
   46.8890   31.6150   46.3660 S   0  0  0  0  0  0  0  0  0  0  0  0
   47.3380   32.7430   47.2150 O   0  0  0  0  0  0  0  0  0  0  0  0
   47.4330   30.3240   46.9020 O   0  0  0  0  0  0  0  0  0  0  0  0
   45.2130   31.4830   46.2700 O   0  0  0  0  0  0  0  0  0  0  0  0
   49.0020   32.9755   42.8661 H   0  0  0  0  0  0  0  0  0  0  0  0
   47.9917   31.1555   44.2819 H   0  0  0  0  0  0  0  0  0  0  0  0
   47.2402   32.4973   48.1690 H   0  0  0  0  0  0  0  0  0  0  0  0
   47.4232   30.3473   47.8917 H   0  0  0  0  0  0  0  0  0  0  0  0
   44.8315   31.4530   47.1831 H   0  0  0  0  0  0  0  0  0  0  0  0
  1  6  2  0
  1  2  1  0
  2  3  2  0
  3  4  1  0
  3 15  1  0
  5 11  1  0
  5  4  2  0
  6  5  1  0
  7 10  1  0
  7  9  1  0
  7  1  1  0
  8  7  1  0
 11 13  1  0
 11 14  1  0
 12 11  1  0
 15 16  1  0
 16 18  1  0
 16 17  1  0
 19 16  1  0
  2 20  1  0
 15 21  1  0
 17 22  1  0
 18 23  1  0
 19 24  1  0
M  ISO  4  20  14  22   3  23   3  24   3
M  END
>  <minimizedAffinity>  (1) 
-5.64091301

>  <minimizedRMSD>  (1) 
0.492350519

$$$$
