
     RDKit          3D

 47 50  0  0  1  0  0  0  0  0999 V2000
   47.4290   32.4820   42.4130 C   0  0  2  0  0  0  0  0  0  0  0  0
   48.9350   32.6170   42.6880 C   0  0  0  0  0  0  0  0  0  0  0  0
   49.5810   31.6650   41.6740 C   0  0  0  0  0  0  0  0  0  0  0  0
   49.4360   32.4130   40.3600 C   0  0  0  0  0  0  0  0  0  0  0  0
   48.0070   32.5570   40.0040 C   0  0  0  0  0  0  0  0  0  0  0  0
   47.1230   33.0730   41.0870 C   0  0  1  0  0  0  0  0  0  0  0  0
   45.7330   32.9600   40.6700 C   0  0  0  0  0  0  0  0  0  0  0  0
   45.1280   31.7550   40.3360 C   0  0  0  0  0  0  0  0  0  0  0  0
   43.8110   31.6420   39.9400 C   0  0  0  0  0  0  0  0  0  0  0  0
   43.0250   32.7930   39.8650 C   0  0  0  0  0  0  0  0  0  0  0  0
   41.7360   32.7570   39.4880 N   0  0  0  0  0  0  0  0  0  0  0  0
   40.9790   33.8770   39.4180 C   0  0  0  0  0  0  0  0  0  0  0  0
   41.5350   35.1130   39.7420 C   0  0  0  0  0  0  0  0  0  0  0  0
   42.8560   35.2180   40.1380 C   0  0  0  0  0  0  0  0  0  0  0  0
   43.5510   34.0280   40.1810 C   0  0  0  0  0  0  0  0  0  0  0  0
   44.8750   34.0610   40.5680 C   0  0  0  0  0  0  0  0  0  0  0  0
   46.0320   33.1500   45.8310 C   0  0  0  0  0  0  0  0  0  0  0  0
   46.7400   32.4810   44.8090 C   0  0  0  0  0  0  0  0  0  0  0  0
   46.7400   33.0790   43.5350 C   0  0  0  0  0  0  0  0  0  0  0  0
   46.0640   34.2510   43.3780 N   0  0  0  0  0  0  0  0  0  0  0  0
   45.4050   34.8570   44.3600 C   0  0  0  0  0  0  0  0  0  0  0  0
   45.3920   34.2970   45.6010 N   0  0  0  0  0  0  0  0  0  0  0  0
   46.0460   32.4970   47.1730 C   0  0  0  0  0  0  0  0  0  0  0  0
   47.2620   32.6760   47.8060 F   0  0  0  0  0  0  0  0  0  0  0  0
   44.9940   33.0270   47.9230 F   0  0  0  0  0  0  0  0  0  0  0  0
   45.7580   31.1440   47.0400 F   0  0  0  0  0  0  0  0  0  0  0  0
   44.6780   36.1370   44.1390 C   0  0  0  0  0  0  0  0  0  0  0  0
   45.2250   36.8650   43.1270 F   0  0  0  0  0  0  0  0  0  0  0  0
   44.6550   36.8820   45.3410 F   0  0  0  0  0  0  0  0  0  0  0  0
   43.3480   35.9100   43.8850 F   0  0  0  0  0  0  0  0  0  0  0  0
   47.0846   31.4397   42.3419 H   0  0  0  0  0  0  0  0  0  0  0  0
   49.2718   33.6512   42.5237 H   0  0  0  0  0  0  0  0  0  0  0  0
   49.2002   32.3737   43.7275 H   0  0  0  0  0  0  0  0  0  0  0  0
   50.6401   31.4909   41.9147 H   0  0  0  0  0  0  0  0  0  0  0  0
   49.1155   30.6685   41.6584 H   0  0  0  0  0  0  0  0  0  0  0  0
   49.8872   33.4113   40.4594 H   0  0  0  0  0  0  0  0  0  0  0  0
   49.9459   31.8452   39.5678 H   0  0  0  0  0  0  0  0  0  0  0  0
   47.9385   33.2497   39.1522 H   0  0  0  0  0  0  0  0  0  0  0  0
   47.6484   31.5413   39.7809 H   0  0  0  0  0  0  0  0  0  0  0  0
   47.3253   34.1430   41.2425 H   0  0  0  0  0  0  0  0  0  0  0  0
   45.7335   30.8383   40.3903 H   0  0  0  0  0  0  0  0  0  0  0  0
   43.3867   30.6591   39.6871 H   0  0  0  0  0  0  0  0  0  0  0  0
   39.9263   33.8115   39.1058 H   0  0  0  0  0  0  0  0  0  0  0  0
   40.9139   36.0189   39.6819 H   0  0  0  0  0  0  0  0  0  0  0  0
   43.3186   36.1811   40.3997 H   0  0  0  0  0  0  0  0  0  0  0  0
   45.2959   35.0455   40.8201 H   0  0  0  0  0  0  0  0  0  0  0  0
   47.2678   31.5350   44.9999 H   0  0  0  0  0  0  0  0  0  0  0  0
  1  2  1  0
  1 19  1  0
  3  2  1  0
  4  3  1  0
  5  4  1  0
  5  6  1  0
  6  1  1  0
  7  6  1  0
  8  7  2  0
  9  8  1  0
 10  9  2  0
 10 15  1  0
 11 10  1  0
 12 11  2  0
 12 13  1  0
 13 14  2  0
 14 15  1  0
 15 16  2  0
 16  7  1  0
 17 23  1  0
 18 17  2  0
 19 18  1  0
 20 19  2  0
 20 21  1  0
 21 22  2  0
 22 17  1  0
 23 24  1  0
 23 25  1  0
 26 23  1  0
 27 21  1  0
 27 29  1  0
 28 27  1  0
 30 27  1  0
  1 31  1  6
  2 32  1  0
  2 33  1  0
  3 34  1  0
  3 35  1  0
  4 36  1  0
  4 37  1  0
  5 38  1  0
  5 39  1  0
  6 40  1  1
  8 41  1  0
  9 42  1  0
 12 43  1  0
 13 44  1  0
 14 45  1  0
 16 46  1  0
 18 47  1  0
M  ISO  8  31  13  32  13  33  13  34  13  35  13  36  13  37  13  38  13
M  ISO  8  39  13  40  13  41  14  42  14  43  14  44  14  45  14  46  14
M  ISO  1  47  14
M  END
>  <minimizedAffinity>  (1) 
-6.68240452

>  <minimizedRMSD>  (1) 
7.60052776

$$$$
