
     RDKit          3D

 43 45  0  0  1  0  0  0  0  0999 V2000
   45.9180   30.7420   44.3860 C   0  0  2  0  0  0  0  0  0  0  0  0
   44.7870   30.3230   43.4360 C   0  0  0  0  0  0  0  0  0  0  0  0
   44.6810   28.8070   43.6670 C   0  0  0  0  0  0  0  0  0  0  0  0
   43.9920   28.7040   45.0110 C   0  0  0  0  0  0  0  0  0  0  0  0
   44.8400   29.2740   46.0870 C   0  0  0  0  0  0  0  0  0  0  0  0
   45.4650   30.6040   45.7990 C   0  0  1  0  0  0  0  0  0  0  0  0
   46.5000   30.8330   46.7450 N   0  0  0  0  0  0  0  0  0  0  0  0
   47.6100   30.1070   46.9030 C   0  0  0  0  0  0  0  0  0  0  0  0
   48.5960   30.3610   47.8340 C   0  0  0  0  0  0  0  0  0  0  0  0
   48.4140   31.4600   48.6750 C   0  0  0  0  0  0  0  0  0  0  0  0
   49.3900   31.7890   49.6660 N   0  0  0  0  0  0  0  0  0  0  0  0
   47.2950   32.1870   48.5100 N   0  0  0  0  0  0  0  0  0  0  0  0
   46.3700   31.8980   47.5910 C   0  0  0  0  0  0  0  0  0  0  0  0
   45.3670   32.6750   47.5560 O   0  0  0  0  0  0  0  0  0  0  0  0
   47.8270   33.7100   43.1100 C   0  0  0  0  0  0  0  0  0  0  0  0
   47.5550   32.3700   43.4420 C   0  0  0  0  0  0  0  0  0  0  0  0
   46.2950   32.0930   44.0080 C   0  0  0  0  0  0  0  0  0  0  0  0
   45.4400   33.1360   44.1920 N   0  0  0  0  0  0  0  0  0  0  0  0
   45.7350   34.3950   43.8640 C   0  0  0  0  0  0  0  0  0  0  0  0
   46.9350   34.6840   43.3200 N   0  0  0  0  0  0  0  0  0  0  0  0
   49.1740   33.9740   42.5100 C   0  0  0  0  0  0  0  0  0  0  0  0
   49.0860   34.1850   41.1470 F   0  0  0  0  0  0  0  0  0  0  0  0
   49.7240   35.0820   43.1550 F   0  0  0  0  0  0  0  0  0  0  0  0
   50.0290   32.9150   42.7890 F   0  0  0  0  0  0  0  0  0  0  0  0
   44.7570   35.5000   44.0890 C   0  0  0  0  0  0  0  0  0  0  0  0
   43.6380   35.3430   43.3310 F   0  0  0  0  0  0  0  0  0  0  0  0
   45.3810   36.7380   43.8190 F   0  0  0  0  0  0  0  0  0  0  0  0
   44.4160   35.5970   45.4150 F   0  0  0  0  0  0  0  0  0  0  0  0
   46.8073   30.0993   44.3072 H   0  0  0  0  0  0  0  0  0  0  0  0
   45.0466   30.5459   42.3906 H   0  0  0  0  0  0  0  0  0  0  0  0
   43.8436   30.8561   43.6253 H   0  0  0  0  0  0  0  0  0  0  0  0
   44.0799   28.3299   42.8790 H   0  0  0  0  0  0  0  0  0  0  0  0
   45.6570   28.3000   43.6449 H   0  0  0  0  0  0  0  0  0  0  0  0
   43.0414   29.2560   44.9714 H   0  0  0  0  0  0  0  0  0  0  0  0
   43.8112   27.6418   45.2322 H   0  0  0  0  0  0  0  0  0  0  0  0
   44.2144   29.3842   46.9850 H   0  0  0  0  0  0  0  0  0  0  0  0
   45.6792   28.5726   46.2043 H   0  0  0  0  0  0  0  0  0  0  0  0
   44.7032   31.3897   45.9105 H   0  0  0  0  0  0  0  0  0  0  0  0
   47.7486   29.2402   46.2401 H   0  0  0  0  0  0  0  0  0  0  0  0
   49.4891   29.7234   47.9104 H   0  0  0  0  0  0  0  0  0  0  0  0
   49.2453   32.6023   50.2812 H   0  0  0  0  0  0  0  0  0  0  0  0
   50.2380   31.2128   49.7649 H   0  0  0  0  0  0  0  0  0  0  0  0
   48.2936   31.5738   43.2673 H   0  0  0  0  0  0  0  0  0  0  0  0
  1  6  1  0
  2  3  1  0
  2  1  1  0
  3  4  1  0
  4  5  1  0
  6  5  1  0
  6  7  1  0
  7  8  1  0
  7 13  1  0
  8  9  2  0
  9 10  1  0
 10 11  1  0
 12 10  2  0
 13 12  1  0
 14 13  2  0
 15 20  2  0
 15 16  1  0
 16 17  2  0
 17 18  1  0
 17  1  1  0
 19 25  1  0
 19 18  2  0
 20 19  1  0
 21 24  1  0
 21 15  1  0
 21 23  1  0
 22 21  1  0
 25 28  1  0
 26 25  1  0
 27 25  1  0
  1 29  1  1
  2 30  1  0
  2 31  1  0
  3 32  1  0
  3 33  1  0
  4 34  1  0
  4 35  1  0
  5 36  1  0
  5 37  1  0
  6 38  1  1
  8 39  1  0
  9 40  1  0
 11 41  1  0
 11 42  1  0
 16 43  1  0
M  ISO  8  29  13  30  13  31  13  32  13  33  13  34  13  35  13  36  13
M  ISO  5  37  13  38  13  39  14  40  14  43  14
M  END
>  <minimizedAffinity>  (1) 
-6.19246244

>  <minimizedRMSD>  (1) 
2.59046698

$$$$
