
     RDKit          3D

 33 34  0  0  1  0  0  0  0  0999 V2000
   46.7920   32.1410   45.2800 C   0  0  2  0  0  0  0  0  0  0  0  0
   45.9290   31.0380   44.6410 C   0  0  0  0  0  0  0  0  0  0  0  0
   46.1830   29.8190   45.5490 C   0  0  0  0  0  0  0  0  0  0  0  0
   45.4180   30.1490   46.8140 C   0  0  0  0  0  0  0  0  0  0  0  0
   46.0010   31.3410   47.4810 C   0  0  0  0  0  0  0  0  0  0  0  0
   46.2590   32.5190   46.6130 C   0  0  1  0  0  0  0  0  0  0  0  0
   47.9630   34.4680   42.5710 C   0  0  0  0  0  0  0  0  0  0  0  0
   47.9860   33.3840   43.4690 C   0  0  0  0  0  0  0  0  0  0  0  0
   46.8740   33.2160   44.3120 C   0  0  0  0  0  0  0  0  0  0  0  0
   45.8480   34.1140   44.2000 N   0  0  0  0  0  0  0  0  0  0  0  0
   45.8620   35.1290   43.3360 C   0  0  0  0  0  0  0  0  0  0  0  0
   46.9260   35.3070   42.5150 N   0  0  0  0  0  0  0  0  0  0  0  0
   49.1520   34.6240   41.6870 C   0  0  0  0  0  0  0  0  0  0  0  0
   49.3380   33.5100   40.8900 F   0  0  0  0  0  0  0  0  0  0  0  0
   48.9780   35.7660   40.9130 F   0  0  0  0  0  0  0  0  0  0  0  0
   50.2840   34.8590   42.4590 F   0  0  0  0  0  0  0  0  0  0  0  0
   44.7140   36.0800   43.2600 C   0  0  0  0  0  0  0  0  0  0  0  0
   44.0270   35.9540   42.0920 F   0  0  0  0  0  0  0  0  0  0  0  0
   45.1890   37.4010   43.4190 F   0  0  0  0  0  0  0  0  0  0  0  0
   43.8560   35.9190   44.3230 F   0  0  0  0  0  0  0  0  0  0  0  0
   47.1160   33.3830   47.2460 O   0  0  0  0  0  0  0  0  0  0  0  0
   47.8171   31.8084   45.5001 H   0  0  0  0  0  0  0  0  0  0  0  0
   44.8652   31.3178   44.6453 H   0  0  0  0  0  0  0  0  0  0  0  0
   46.1816   30.8500   43.5870 H   0  0  0  0  0  0  0  0  0  0  0  0
   45.7980   28.8982   45.0865 H   0  0  0  0  0  0  0  0  0  0  0  0
   47.2526   29.6388   45.7320 H   0  0  0  0  0  0  0  0  0  0  0  0
   44.3682   30.3550   46.5583 H   0  0  0  0  0  0  0  0  0  0  0  0
   45.4811   29.2919   47.5006 H   0  0  0  0  0  0  0  0  0  0  0  0
   45.3066   31.6546   48.2744 H   0  0  0  0  0  0  0  0  0  0  0  0
   46.9890   31.0211   47.8436 H   0  0  0  0  0  0  0  0  0  0  0  0
   45.2938   33.0165   46.4370 H   0  0  0  0  0  0  0  0  0  0  0  0
   48.8421   32.6944   43.5094 H   0  0  0  0  0  0  0  0  0  0  0  0
   47.0188   33.2851   48.2263 H   0  0  0  0  0  0  0  0  0  0  0  0
  1  6  1  0
  2  1  1  0
  2  3  1  0
  3  4  1  0
  4  5  1  0
  6 21  1  0
  6  5  1  0
  7  8  2  0
  8  9  1  0
  9  1  1  0
 10  9  2  0
 11 10  1  0
 12  7  1  0
 12 11  2  0
 13 16  1  0
 13  7  1  0
 14 13  1  0
 15 13  1  0
 17 11  1  0
 17 19  1  0
 17 20  1  0
 18 17  1  0
  1 22  1  1
  2 23  1  0
  2 24  1  0
  3 25  1  0
  3 26  1  0
  4 27  1  0
  4 28  1  0
  5 29  1  0
  5 30  1  0
  6 31  1  6
  8 32  1  0
 21 33  1  0
M  ISO  8  22  13  23  13  24  13  25  13  26  13  27  13  28  13  29  13
M  ISO  4  30  13  31  13  32  14  33   3
M  END
>  <minimizedAffinity>  (1) 
-6.55142832

>  <minimizedRMSD>  (1) 
0.314196974

$$$$
