
     RDKit          3D

 45 48  0  0  1  0  0  0  0  0999 V2000
   46.1610   31.0010   44.2240 C   0  0  2  0  0  0  0  0  0  0  0  0
   45.3290   30.3950   43.0820 C   0  0  0  0  0  0  0  0  0  0  0  0
   45.4170   28.8770   43.3280 C   0  0  0  0  0  0  0  0  0  0  0  0
   44.4900   28.6820   44.5240 C   0  0  0  0  0  0  0  0  0  0  0  0
   45.0310   29.3660   45.7180 C   0  0  0  0  0  0  0  0  0  0  0  0
   45.4810   30.7810   45.5230 C   0  0  1  0  0  0  0  0  0  0  0  0
   46.2800   31.1510   46.6400 N   0  0  0  0  0  0  0  0  0  0  0  0
   45.9700   32.1540   47.4990 C   0  0  0  0  0  0  0  0  0  0  0  0
   46.9110   32.2700   48.4560 N   0  0  0  0  0  0  0  0  0  0  0  0
   47.8500   31.3400   48.2300 C   0  0  0  0  0  0  0  0  0  0  0  0
   49.0410   30.9080   48.7880 C   0  0  0  0  0  0  0  0  0  0  0  0
   49.7690   29.8960   48.2850 N   0  0  0  0  0  0  0  0  0  0  0  0
   49.3400   29.2540   47.1840 C   0  0  0  0  0  0  0  0  0  0  0  0
   48.1830   29.6410   46.6060 N   0  0  0  0  0  0  0  0  0  0  0  0
   47.4440   30.6540   47.1010 C   0  0  0  0  0  0  0  0  0  0  0  0
   49.4920   31.5900   49.9520 N   0  0  0  0  0  0  0  0  0  0  0  0
   47.7160   34.1520   42.9120 C   0  0  0  0  0  0  0  0  0  0  0  0
   47.5800   32.7800   43.2000 C   0  0  0  0  0  0  0  0  0  0  0  0
   46.4070   32.3800   43.8700 C   0  0  0  0  0  0  0  0  0  0  0  0
   45.4870   33.3460   44.1930 N   0  0  0  0  0  0  0  0  0  0  0  0
   45.6600   34.6300   43.9000 C   0  0  0  0  0  0  0  0  0  0  0  0
   46.7710   35.0380   43.2610 N   0  0  0  0  0  0  0  0  0  0  0  0
   48.9620   34.5640   42.2030 C   0  0  0  0  0  0  0  0  0  0  0  0
   49.5610   33.4970   41.5720 F   0  0  0  0  0  0  0  0  0  0  0  0
   48.6460   35.5870   41.3080 F   0  0  0  0  0  0  0  0  0  0  0  0
   49.8490   35.1430   43.1290 F   0  0  0  0  0  0  0  0  0  0  0  0
   44.6290   35.6450   44.2750 C   0  0  0  0  0  0  0  0  0  0  0  0
   43.4920   35.5050   43.5410 F   0  0  0  0  0  0  0  0  0  0  0  0
   45.1710   36.9420   44.1330 F   0  0  0  0  0  0  0  0  0  0  0  0
   44.3320   35.5780   45.6160 F   0  0  0  0  0  0  0  0  0  0  0  0
   47.1391   30.5153   44.3557 H   0  0  0  0  0  0  0  0  0  0  0  0
   45.7563   30.6587   42.1033 H   0  0  0  0  0  0  0  0  0  0  0  0
   44.2929   30.7642   43.0686 H   0  0  0  0  0  0  0  0  0  0  0  0
   45.0623   28.3114   42.4538 H   0  0  0  0  0  0  0  0  0  0  0  0
   46.4423   28.5202   43.5052 H   0  0  0  0  0  0  0  0  0  0  0  0
   43.5002   29.0986   44.2860 H   0  0  0  0  0  0  0  0  0  0  0  0
   44.4083   27.6061   44.7379 H   0  0  0  0  0  0  0  0  0  0  0  0
   44.2461   29.3668   46.4887 H   0  0  0  0  0  0  0  0  0  0  0  0
   45.9361   28.8049   45.9935 H   0  0  0  0  0  0  0  0  0  0  0  0
   44.5997   31.4375   45.4748 H   0  0  0  0  0  0  0  0  0  0  0  0
   45.0729   32.7862   47.4244 H   0  0  0  0  0  0  0  0  0  0  0  0
   49.9243   28.4242   46.7598 H   0  0  0  0  0  0  0  0  0  0  0  0
   50.3724   31.3074   50.4058 H   0  0  0  0  0  0  0  0  0  0  0  0
   48.9382   32.3664   50.3410 H   0  0  0  0  0  0  0  0  0  0  0  0
   48.3549   32.0534   42.9146 H   0  0  0  0  0  0  0  0  0  0  0  0
  1  6  1  0
  2  3  1  0
  2  1  1  0
  3  4  1  0
  4  5  1  0
  6  5  1  0
  6  7  1  0
  7 15  1  0
  7  8  1  0
  8  9  2  0
 10  9  1  0
 10 11  2  0
 11 16  1  0
 12 11  1  0
 13 12  2  0
 14 15  2  0
 14 13  1  0
 15 10  1  0
 17 18  2  0
 17 22  1  0
 18 19  1  0
 19 20  2  0
 19  1  1  0
 21 20  1  0
 21 27  1  0
 22 21  2  0
 23 17  1  0
 23 26  1  0
 24 23  1  0
 25 23  1  0
 27 30  1  0
 28 27  1  0
 29 27  1  0
  1 31  1  1
  2 32  1  0
  2 33  1  0
  3 34  1  0
  3 35  1  0
  4 36  1  0
  4 37  1  0
  5 38  1  0
  5 39  1  0
  6 40  1  6
  8 41  1  0
 13 42  1  0
 16 43  1  0
 16 44  1  0
 18 45  1  0
M  ISO  8  31  13  32  13  33  13  34  13  35  13  36  13  37  13  38  13
M  ISO  5  39  13  40  13  41  14  42  14  45  14
M  END
>  <minimizedAffinity>  (1) 
-6.53509855

>  <minimizedRMSD>  (1) 
2.50244904

$$$$
