
     RDKit          3D

 26 27  0  0  1  0  0  0  0  0999 V2000
   47.7190   33.7500   42.9720 C   0  0  2  0  0  0  0  0  0  0  0  0
   45.9350   35.4880   43.0130 C   0  0  0  0  0  0  0  0  0  0  0  0
   46.5810   34.4090   43.6130 C   0  0  0  0  0  0  0  0  0  0  0  0
   46.0940   33.9630   44.8700 C   0  0  0  0  0  0  0  0  0  0  0  0
   45.0210   34.6220   45.4120 N   0  0  0  0  0  0  0  0  0  0  0  0
   44.4510   35.6540   44.7770 C   0  0  0  0  0  0  0  0  0  0  0  0
   44.8970   36.0940   43.5810 N   0  0  0  0  0  0  0  0  0  0  0  0
   49.1380   35.9810   41.3560 Cl  0  0  0  0  0  0  0  0  0  0  0  0
   48.2570   34.6540   40.6330 C   0  0  0  0  0  0  0  0  0  0  0  0
   47.6740   33.7210   41.4880 C   0  0  0  0  0  0  0  0  0  0  0  0
   47.0010   32.7040   40.8060 C   0  0  0  0  0  0  0  0  0  0  0  0
   46.8890   32.5800   39.4370 C   0  0  0  0  0  0  0  0  0  0  0  0
   47.4950   33.5450   38.6620 C   0  0  0  0  0  0  0  0  0  0  0  0
   48.1790   34.5820   39.2600 C   0  0  0  0  0  0  0  0  0  0  0  0
   47.7880   32.3150   43.4530 C   0  0  0  0  0  0  0  0  0  0  0  0
   48.5996   34.3461   43.2534 H   0  0  0  0  0  0  0  0  0  0  0  0
   46.2953   35.8498   42.0387 H   0  0  0  0  0  0  0  0  0  0  0  0
   46.5627   33.1158   45.3922 H   0  0  0  0  0  0  0  0  0  0  0  0
   43.5927   36.1590   45.2443 H   0  0  0  0  0  0  0  0  0  0  0  0
   46.5151   31.9300   41.4182 H   0  0  0  0  0  0  0  0  0  0  0  0
   46.3378   31.7440   38.9818 H   0  0  0  0  0  0  0  0  0  0  0  0
   47.4329   33.4879   37.5652 H   0  0  0  0  0  0  0  0  0  0  0  0
   48.6624   35.3518   38.6405 H   0  0  0  0  0  0  0  0  0  0  0  0
   47.7889   32.2966   44.5528 H   0  0  0  0  0  0  0  0  0  0  0  0
   46.9155   31.7601   43.0777 H   0  0  0  0  0  0  0  0  0  0  0  0
   48.7097   31.8464   43.0777 H   0  0  0  0  0  0  0  0  0  0  0  0
  1 15  1  0
  1  3  1  0
  2  7  2  0
  2  3  1  0
  3  4  2  0
  4  5  1  0
  6  5  2  0
  7  6  1  0
  9  8  1  0
  9 10  2  0
 10  1  1  0
 11 10  1  0
 12 11  2  0
 13 14  2  0
 13 12  1  0
 14  9  1  0
  1 16  1  6
  2 17  1  0
  4 18  1  0
  6 19  1  0
 11 20  1  0
 12 21  1  0
 13 22  1  0
 14 23  1  0
 15 24  1  0
 15 25  1  0
 15 26  1  0
M  ISO  8  16   8  17  14  18  14  19  14  20  14  21  14  22  14  23  14
M  ISO  3  24   8  25   8  26   8
M  END
>  <minimizedAffinity>  (1) 
-4.77250099

>  <minimizedRMSD>  (1) 
2.10293221

$$$$
