
     RDKit          3D

 29 31  0  0  1  0  0  0  0  0999 V2000
   45.1950   34.8280   42.8380 C   0  0  2  0  0  0  0  0  0  0  0  0
   45.1550   34.4600   45.3240 C   0  0  0  0  0  0  0  0  0  0  0  0
   45.5500   34.0680   44.0630 C   0  0  0  0  0  0  0  0  0  0  0  0
   46.3150   32.8960   44.0030 C   0  0  0  0  0  0  0  0  0  0  0  0
   46.6450   32.1900   45.1320 C   0  0  0  0  0  0  0  0  0  0  0  0
   47.3650   31.0470   45.3020 N   0  0  0  0  0  0  0  0  0  0  0  0
   47.3910   30.7760   46.6290 C   0  0  0  0  0  0  0  0  0  0  0  0
   46.6900   31.7460   47.2820 N   0  0  0  0  0  0  0  0  0  0  0  0
   46.2130   32.6400   46.3710 C   0  0  0  0  0  0  0  0  0  0  0  0
   45.4530   33.7960   46.4940 C   0  0  0  0  0  0  0  0  0  0  0  0
   45.9900   33.9700   40.6800 C   0  0  0  0  0  0  0  0  0  0  0  0
   46.2730   34.6980   41.8610 C   0  0  0  0  0  0  0  0  0  0  0  0
   47.5560   35.2390   42.0060 C   0  0  0  0  0  0  0  0  0  0  0  0
   48.4470   35.0320   41.0040 N   0  0  0  0  0  0  0  0  0  0  0  0
   48.1390   34.3390   39.9050 C   0  0  0  0  0  0  0  0  0  0  0  0
   46.9220   33.8100   39.7400 N   0  0  0  0  0  0  0  0  0  0  0  0
   45.0680   36.3160   43.1520 C   0  0  0  0  0  0  0  0  0  0  0  0
   44.2444   34.4301   42.4531 H   0  0  0  0  0  0  0  0  0  0  0  0
   44.5531   35.3773   45.4027 H   0  0  0  0  0  0  0  0  0  0  0  0
   46.6604   32.5320   43.0241 H   0  0  0  0  0  0  0  0  0  0  0  0
   47.8088   30.4902   44.5577 H   0  0  0  0  0  0  0  0  0  0  0  0
   47.8930   29.9181   47.1002 H   0  0  0  0  0  0  0  0  0  0  0  0
   45.1077   34.1616   47.4723 H   0  0  0  0  0  0  0  0  0  0  0  0
   44.9912   33.5320   40.5366 H   0  0  0  0  0  0  0  0  0  0  0  0
   47.8326   35.8130   42.9027 H   0  0  0  0  0  0  0  0  0  0  0  0
   48.8993   34.2009   39.1221 H   0  0  0  0  0  0  0  0  0  0  0  0
   45.0556   36.4609   44.2423 H   0  0  0  0  0  0  0  0  0  0  0  0
   45.9233   36.8562   42.7200 H   0  0  0  0  0  0  0  0  0  0  0  0
   44.1335   36.7035   42.7200 H   0  0  0  0  0  0  0  0  0  0  0  0
  1 17  1  0
  1  3  1  0
  2 10  2  0
  3  2  1  0
  4  3  2  0
  4  5  1  0
  5  6  1  0
  5  9  2  0
  6  7  1  0
  7  8  2  0
  9 10  1  0
  9  8  1  0
 11 12  2  0
 12 13  1  0
 12  1  1  0
 14 13  2  0
 15 14  1  0
 16 15  2  0
 16 11  1  0
  1 18  1  6
  2 19  1  0
  4 20  1  0
  6 21  1  0
  7 22  1  0
 10 23  1  0
 11 24  1  0
 13 25  1  0
 15 26  1  0
 17 27  1  0
 17 28  1  0
 17 29  1  0
M  ISO  8  18   8  19  14  20  14  21   9  22  14  23  14  24  14  25  14
M  ISO  4  26  14  27   8  28   8  29   8
M  END
>  <minimizedAffinity>  (1) 
-4.73740911

>  <minimizedRMSD>  (1) 
6.42853498

$$$$
