
     RDKit          3D

 17 17  0  0  1  0  0  0  0  0999 V2000
   45.1880   35.2890   44.0460 C   0  0  0  0  0  0  0  0  0  0  0  0
   46.2620   34.6550   43.3640 C   0  0  0  0  0  0  0  0  0  0  0  0
   46.9530   33.6300   43.9900 C   0  0  0  0  0  0  0  0  0  0  0  0
   46.5470   33.2810   45.2540 N   0  0  0  0  0  0  0  0  0  0  0  0
   45.5120   33.9090   45.8740 C   0  0  0  0  0  0  0  0  0  0  0  0
   44.8140   34.9210   45.2880 N   0  0  0  0  0  0  0  0  0  0  0  0
   46.5470   35.0790   42.0410 C   0  0  1  0  0  0  0  0  0  0  0  0
   48.0720   35.1670   41.8660 C   0  0  0  0  0  0  0  0  0  0  0  0
   46.1440   34.0220   41.1480 O   0  0  0  0  0  0  0  0  0  0  0  0
   44.6456   36.1045   43.5453 H   0  0  0  0  0  0  0  0  0  0  0  0
   47.7913   33.1177   43.4951 H   0  0  0  0  0  0  0  0  0  0  0  0
   45.2280   33.5874   46.8869 H   0  0  0  0  0  0  0  0  0  0  0  0
   46.0444   36.0376   41.8449 H   0  0  0  0  0  0  0  0  0  0  0  0
   48.5535   35.1948   42.8546 H   0  0  0  0  0  0  0  0  0  0  0  0
   48.4285   34.2879   41.3091 H   0  0  0  0  0  0  0  0  0  0  0  0
   48.3250   36.0812   41.3091 H   0  0  0  0  0  0  0  0  0  0  0  0
   45.8457   33.2396   41.6761 H   0  0  0  0  0  0  0  0  0  0  0  0
  1  6  2  0
  2  3  2  0
  2  1  1  0
  3  4  1  0
  4  5  2  0
  6  5  1  0
  7  2  1  0
  8  7  1  0
  9  7  1  0
  1 10  1  0
  3 11  1  0
  5 12  1  0
  7 13  1  6
  8 14  1  0
  8 15  1  0
  8 16  1  0
  9 17  1  0
M  ISO  8  10  14  11  14  12  14  13   8  14   8  15   8  16   8  17   3
M  END
>  <minimizedAffinity>  (1) 
-3.15258002

>  <minimizedRMSD>  (1) 
0.112063251

$$$$
