
     RDKit          3D

 37 39  0  0  0  0  0  0  0  0999 V2000
   46.5650   33.1150   46.0150 C   0  0  0  0  0  0  0  0  0  0  0  0
   46.0720   32.2260   47.0660 C   0  0  0  0  0  0  0  0  0  0  0  0
   45.8030   32.5050   48.3860 C   0  0  0  0  0  0  0  0  0  0  0  0
   45.3370   31.5910   49.2740 C   0  0  0  0  0  0  0  0  0  0  0  0
   45.1200   30.3120   48.8340 C   0  0  0  0  0  0  0  0  0  0  0  0
   45.3820   30.0100   47.5150 C   0  0  0  0  0  0  0  0  0  0  0  0
   45.8570   30.9550   46.6270 C   0  0  0  0  0  0  0  0  0  0  0  0
   47.3340   29.7450   45.1450 C   0  0  0  0  0  0  0  0  0  0  0  0
   48.4890   29.6770   45.7080 O   0  0  0  0  0  0  0  0  0  0  0  0
   46.0230   30.2750   45.3790 N   0  0  0  0  0  0  0  0  0  0  0  0
   45.4880   34.0470   45.5220 C   0  0  0  0  0  0  0  0  0  0  0  0
   44.7030   34.2920   41.9490 C   0  0  0  0  0  0  0  0  0  0  0  0
   45.9860   34.4380   41.3620 C   0  0  0  0  0  0  0  0  0  0  0  0
   47.0710   34.4460   42.2350 C   0  0  0  0  0  0  0  0  0  0  0  0
   46.8800   34.3210   43.5500 N   0  0  0  0  0  0  0  0  0  0  0  0
   45.6290   34.1830   44.0560 C   0  0  0  0  0  0  0  0  0  0  0  0
   44.5640   34.1680   43.2940 N   0  0  0  0  0  0  0  0  0  0  0  0
   48.4520   34.5970   41.6830 C   0  0  0  0  0  0  0  0  0  0  0  0
   49.5590   34.9690   42.6450 C   0  0  0  0  0  0  0  0  0  0  0  0
   49.0940   35.9100   41.5540 C   0  0  0  0  0  0  0  0  0  0  0  0
   47.3976   33.7123   46.4150 H   0  0  0  0  0  0  0  0  0  0  0  0
   46.8954   32.4949   45.1687 H   0  0  0  0  0  0  0  0  0  0  0  0
   45.9761   33.5309   48.7431 H   0  0  0  0  0  0  0  0  0  0  0  0
   45.1387   31.8697   50.3195 H   0  0  0  0  0  0  0  0  0  0  0  0
   44.7434   29.5399   49.5210 H   0  0  0  0  0  0  0  0  0  0  0  0
   45.2073   28.9842   47.1584 H   0  0  0  0  0  0  0  0  0  0  0  0
   47.3616   29.2319   44.1724 H   0  0  0  0  0  0  0  0  0  0  0  0
   45.2564   30.1738   44.6985 H   0  0  0  0  0  0  0  0  0  0  0  0
   44.4980   33.6329   45.7639 H   0  0  0  0  0  0  0  0  0  0  0  0
   45.5861   35.0301   46.0056 H   0  0  0  0  0  0  0  0  0  0  0  0
   43.8099   34.2791   41.3069 H   0  0  0  0  0  0  0  0  0  0  0  0
   46.1170   34.5395   40.2746 H   0  0  0  0  0  0  0  0  0  0  0  0
   48.2603   33.7847   40.9665 H   0  0  0  0  0  0  0  0  0  0  0  0
   49.3299   35.1842   43.6991 H   0  0  0  0  0  0  0  0  0  0  0  0
   50.5194   34.5290   42.9516 H   0  0  0  0  0  0  0  0  0  0  0  0
   49.7483   36.1172   40.6944 H   0  0  0  0  0  0  0  0  0  0  0  0
   48.7310   36.9482   41.5328 H   0  0  0  0  0  0  0  0  0  0  0  0
  1  2  1  0
  2  3  2  0
  3  4  1  0
  5  4  2  0
  6  5  1  0
  7  2  1  0
  7  6  2  0
  8 10  1  0
  8  9  2  0
 10  7  1  0
 11  1  1  0
 12 17  2  0
 13 12  1  0
 13 14  2  0
 14 15  1  0
 15 16  2  0
 16 11  1  0
 17 16  1  0
 18 14  1  0
 18 19  1  0
 20 18  1  0
 20 19  1  0
  1 21  1  0
  1 22  1  0
  3 23  1  0
  4 24  1  0
  5 25  1  0
  6 26  1  0
  8 27  1  0
 10 28  1  0
 11 29  1  0
 11 30  1  0
 12 31  1  0
 13 32  1  0
 18 33  1  0
 19 34  1  0
 19 35  1  0
 20 36  1  0
 20 37  1  0
M  ISO  8  21   8  22   8  23  14  24  14  25  14  26  14  27   6  29   8
M  ISO  8  30   8  31  14  32  14  33  13  34  13  35  13  36  13  37  13
M  END
>  <minimizedAffinity>  (1) 
-5.6875658

>  <minimizedRMSD>  (1) 
1.73068917

$$$$
