
     RDKit          3D

 46 49  0  0  1  0  0  0  0  0999 V2000
   46.1090   34.2010   40.8880 C   0  0  1  0  0  0  0  0  0  0  0  0
   46.7980   32.9400   40.8840 N   0  0  0  0  0  0  0  0  0  0  0  0
   46.5900   32.1930   39.7000 C   0  0  0  0  0  0  0  0  0  0  0  0
   47.0430   30.7600   40.0430 C   0  0  0  0  0  0  0  0  0  0  0  0
   48.4780   30.8820   40.0880 N   0  0  0  0  0  0  0  0  0  0  0  0
   48.9160   31.7570   41.0970 C   0  0  0  0  0  0  0  0  0  0  0  0
   48.1560   33.0720   41.2070 C   0  0  0  0  0  0  0  0  0  0  0  0
   43.8230   35.1800   40.6920 C   0  0  0  0  0  0  0  0  0  0  0  0
   44.6860   34.1550   41.0340 C   0  0  0  0  0  0  0  0  0  0  0  0
   44.0810   32.9980   41.5590 C   0  0  0  0  0  0  0  0  0  0  0  0
   42.7220   32.9460   41.7000 N   0  0  0  0  0  0  0  0  0  0  0  0
   41.9390   33.9970   41.3410 C   0  0  0  0  0  0  0  0  0  0  0  0
   42.4960   35.1130   40.8360 N   0  0  0  0  0  0  0  0  0  0  0  0
   46.6790   35.0720   42.0150 C   0  0  0  0  0  0  0  0  0  0  0  0
   45.9840   35.0330   43.2590 C   0  0  0  0  0  0  0  0  0  0  0  0
   45.0450   35.7560   43.9130 C   0  0  0  0  0  0  0  0  0  0  0  0
   44.5000   35.5340   45.1640 C   0  0  0  0  0  0  0  0  0  0  0  0
   44.9750   34.4580   45.7970 N   0  0  0  0  0  0  0  0  0  0  0  0
   45.8880   33.6960   45.2400 C   0  0  0  0  0  0  0  0  0  0  0  0
   46.3520   33.9860   44.0360 N   0  0  0  0  0  0  0  0  0  0  0  0
   46.3580   32.5230   46.0110 C   0  0  0  0  0  0  0  0  0  0  0  0
   47.0180   32.6740   47.2140 C   0  0  0  0  0  0  0  0  0  0  0  0
   47.4290   31.5110   47.8760 C   0  0  0  0  0  0  0  0  0  0  0  0
   47.1970   30.2880   47.3750 N   0  0  0  0  0  0  0  0  0  0  0  0
   46.5500   30.1960   46.1990 C   0  0  0  0  0  0  0  0  0  0  0  0
   46.1400   31.3110   45.5320 N   0  0  0  0  0  0  0  0  0  0  0  0
   46.2817   34.6132   39.8829 H   0  0  0  0  0  0  0  0  0  0  0  0
   47.1925   32.6013   38.8752 H   0  0  0  0  0  0  0  0  0  0  0  0
   45.5406   32.2255   39.3717 H   0  0  0  0  0  0  0  0  0  0  0  0
   46.6417   30.4396   41.0158 H   0  0  0  0  0  0  0  0  0  0  0  0
   46.6919   30.0075   39.3216 H   0  0  0  0  0  0  0  0  0  0  0  0
   48.8827   29.9507   40.2607 H   0  0  0  0  0  0  0  0  0  0  0  0
   48.8267   31.2336   42.0603 H   0  0  0  0  0  0  0  0  0  0  0  0
   49.9481   32.0288   40.8307 H   0  0  0  0  0  0  0  0  0  0  0  0
   48.6119   33.8006   40.5205 H   0  0  0  0  0  0  0  0  0  0  0  0
   48.2181   33.4055   42.2534 H   0  0  0  0  0  0  0  0  0  0  0  0
   44.2535   36.1036   40.2776 H   0  0  0  0  0  0  0  0  0  0  0  0
   44.6996   32.1380   41.8551 H   0  0  0  0  0  0  0  0  0  0  0  0
   40.8476   33.9354   41.4635 H   0  0  0  0  0  0  0  0  0  0  0  0
   47.7134   34.7464   42.1991 H   0  0  0  0  0  0  0  0  0  0  0  0
   46.5844   36.1087   41.6596 H   0  0  0  0  0  0  0  0  0  0  0  0
   44.6646   36.6383   43.3774 H   0  0  0  0  0  0  0  0  0  0  0  0
   43.7355   36.1916   45.6034 H   0  0  0  0  0  0  0  0  0  0  0  0
   47.2136   33.6706   47.6365 H   0  0  0  0  0  0  0  0  0  0  0  0
   47.9582   31.6025   48.8360 H   0  0  0  0  0  0  0  0  0  0  0  0
   46.3486   29.2039   45.7688 H   0  0  0  0  0  0  0  0  0  0  0  0
  1  9  1  0
  1 14  1  0
  2  1  1  0
  2  7  1  0
  3  4  1  0
  3  2  1  0
  4  5  1  0
  5  6  1  0
  6  7  1  0
  8 13  2  0
  8  9  1  0
  9 10  2  0
 10 11  1  0
 12 11  2  0
 13 12  1  0
 14 15  1  0
 15 16  2  0
 15 20  1  0
 16 17  1  0
 17 18  2  0
 19 18  1  0
 19 21  1  0
 20 19  2  0
 21 22  2  0
 22 23  1  0
 24 23  2  0
 25 24  1  0
 26 21  1  0
 26 25  2  0
  1 27  1  6
  3 28  1  0
  3 29  1  0
  4 30  1  0
  4 31  1  0
  5 32  1  0
  6 33  1  0
  6 34  1  0
  7 35  1  0
  7 36  1  0
  8 37  1  0
 10 38  1  0
 12 39  1  0
 14 40  1  0
 14 41  1  0
 16 42  1  0
 17 43  1  0
 22 44  1  0
 23 45  1  0
 25 46  1  0
M  ISO  8  27   8  28  13  29  13  30  13  31  13  32   5  33  13  34  13
M  ISO  8  35  13  36  13  37  14  38  14  39  14  40   8  41   8  42  14
M  ISO  4  43  14  44  14  45  14  46  14
M  END
>  <minimizedAffinity>  (1) 
-5.33182526

>  <minimizedRMSD>  (1) 
5.36510229

$$$$
