
     RDKit          3D

 47 50  0  0  1  0  0  0  0  0999 V2000
   47.0940   33.7820   41.1380 C   0  0  1  0  0  0  0  0  0  0  0  0
   48.3110   33.0200   41.2140 N   0  0  0  0  0  0  0  0  0  0  0  0
   48.7440   32.5360   39.9570 C   0  0  0  0  0  0  0  0  0  0  0  0
   49.7860   31.4500   40.2780 C   0  0  0  0  0  0  0  0  0  0  0  0
   50.9210   32.2150   40.7300 N   0  0  0  0  0  0  0  0  0  0  0  0
   50.6540   32.9680   41.8910 C   0  0  0  0  0  0  0  0  0  0  0  0
   49.3230   33.7030   41.9060 C   0  0  0  0  0  0  0  0  0  0  0  0
   44.6190   33.5080   41.0400 C   0  0  0  0  0  0  0  0  0  0  0  0
   45.8800   33.0740   41.4070 C   0  0  0  0  0  0  0  0  0  0  0  0
   45.9330   31.8420   42.0900 C   0  0  0  0  0  0  0  0  0  0  0  0
   44.7770   31.1610   42.3490 N   0  0  0  0  0  0  0  0  0  0  0  0
   43.5760   31.6380   41.9640 C   0  0  0  0  0  0  0  0  0  0  0  0
   43.4950   32.8230   41.3030 N   0  0  0  0  0  0  0  0  0  0  0  0
   47.1860   34.9620   42.1140 C   0  0  0  0  0  0  0  0  0  0  0  0
   46.3660   34.8870   43.2780 C   0  0  0  0  0  0  0  0  0  0  0  0
   45.2680   35.4970   43.7790 C   0  0  0  0  0  0  0  0  0  0  0  0
   44.6250   35.2570   44.9780 C   0  0  0  0  0  0  0  0  0  0  0  0
   45.1600   34.3040   45.7300 N   0  0  0  0  0  0  0  0  0  0  0  0
   46.2290   33.6570   45.3230 C   0  0  0  0  0  0  0  0  0  0  0  0
   46.7890   33.9460   44.1560 N   0  0  0  0  0  0  0  0  0  0  0  0
   46.7890   32.5970   46.2050 C   0  0  0  0  0  0  0  0  0  0  0  0
   46.9060   32.7850   47.5350 C   0  0  0  0  0  0  0  0  0  0  0  0
   47.4400   31.7600   48.3210 C   0  0  0  0  0  0  0  0  0  0  0  0
   47.8190   30.5990   47.6830 C   0  0  0  0  0  0  0  0  0  0  0  0
   47.6960   30.4160   46.3320 C   0  0  0  0  0  0  0  0  0  0  0  0
   47.1780   31.4320   45.6160 N   0  0  0  0  0  0  0  0  0  0  0  0
   47.0244   34.0891   40.0840 H   0  0  0  0  0  0  0  0  0  0  0  0
   49.2000   33.3457   39.3684 H   0  0  0  0  0  0  0  0  0  0  0  0
   47.9093   32.1402   39.3599 H   0  0  0  0  0  0  0  0  0  0  0  0
   49.4238   30.7754   41.0677 H   0  0  0  0  0  0  0  0  0  0  0  0
   50.0143   30.8004   39.4201 H   0  0  0  0  0  0  0  0  0  0  0  0
   51.6947   31.5656   40.9314 H   0  0  0  0  0  0  0  0  0  0  0  0
   50.6714   32.2820   42.7507 H   0  0  0  0  0  0  0  0  0  0  0  0
   51.4288   33.7480   41.9284 H   0  0  0  0  0  0  0  0  0  0  0  0
   49.4622   34.6894   41.4395 H   0  0  0  0  0  0  0  0  0  0  0  0
   49.0051   33.7860   42.9558 H   0  0  0  0  0  0  0  0  0  0  0  0
   44.5327   34.4649   40.5044 H   0  0  0  0  0  0  0  0  0  0  0  0
   46.9007   31.4306   42.4131 H   0  0  0  0  0  0  0  0  0  0  0  0
   42.6615   31.0680   42.1849 H   0  0  0  0  0  0  0  0  0  0  0  0
   48.2318   35.0412   42.4458 H   0  0  0  0  0  0  0  0  0  0  0  0
   46.8188   35.8343   41.5534 H   0  0  0  0  0  0  0  0  0  0  0  0
   44.8301   36.2865   43.1505 H   0  0  0  0  0  0  0  0  0  0  0  0
   43.7308   35.8177   45.2879 H   0  0  0  0  0  0  0  0  0  0  0  0
   46.5858   33.7315   47.9949 H   0  0  0  0  0  0  0  0  0  0  0  0
   47.5535   31.8759   49.4090 H   0  0  0  0  0  0  0  0  0  0  0  0
   48.2397   29.7816   48.2871 H   0  0  0  0  0  0  0  0  0  0  0  0
   48.0076   29.4772   45.8508 H   0  0  0  0  0  0  0  0  0  0  0  0
  1  2  1  0
  1  9  1  0
  1 14  1  0
  2  7  1  0
  3  4  1  0
  3  2  1  0
  4  5  1  0
  5  6  1  0
  6  7  1  0
  8 13  2  0
  8  9  1  0
  9 10  2  0
 10 11  1  0
 12 11  2  0
 13 12  1  0
 14 15  1  0
 15 16  2  0
 15 20  1  0
 16 17  1  0
 17 18  2  0
 19 18  1  0
 19 21  1  0
 20 19  2  0
 21 22  2  0
 22 23  1  0
 24 23  2  0
 25 24  1  0
 26 21  1  0
 26 25  2  0
  1 27  1  6
  3 28  1  0
  3 29  1  0
  4 30  1  0
  4 31  1  0
  5 32  1  0
  6 33  1  0
  6 34  1  0
  7 35  1  0
  7 36  1  0
  8 37  1  0
 10 38  1  0
 12 39  1  0
 14 40  1  0
 14 41  1  0
 16 42  1  0
 17 43  1  0
 22 44  1  0
 23 45  1  0
 24 46  1  0
 25 47  1  0
M  ISO  8  27   8  28  13  29  13  30  13  31  13  32   5  33  13  34  13
M  ISO  8  35  13  36  13  37  14  38  14  39  14  40   8  41   8  42  14
M  ISO  5  43  14  44  14  45  14  46  14  47  14
M  END
>  <minimizedAffinity>  (1) 
-5.51309824

>  <minimizedRMSD>  (1) 
5.38185883

$$$$
