
     RDKit          3D

 51 55  0  0  1  0  0  0  0  0999 V2000
   44.2340   31.9240   38.4920 C   0  0  1  0  0  0  0  0  0  0  0  0
   43.6030   30.7650   39.0640 N   0  0  0  0  0  0  0  0  0  0  0  0
   44.3720   30.1580   40.0840 C   0  0  0  0  0  0  0  0  0  0  0  0
   43.7520   28.7580   40.2730 C   0  0  0  0  0  0  0  0  0  0  0  0
   42.5060   29.0450   40.9390 N   0  0  0  0  0  0  0  0  0  0  0  0
   41.6410   29.8360   40.1650 C   0  0  0  0  0  0  0  0  0  0  0  0
   42.2800   31.0190   39.4590 C   0  0  0  0  0  0  0  0  0  0  0  0
   45.5240   32.5990   36.4680 C   0  0  0  0  0  0  0  0  0  0  0  0
   44.5300   31.8710   37.0940 C   0  0  0  0  0  0  0  0  0  0  0  0
   43.7740   31.0230   36.2600 C   0  0  0  0  0  0  0  0  0  0  0  0
   44.0520   30.9660   34.9210 N   0  0  0  0  0  0  0  0  0  0  0  0
   45.0480   31.7150   34.3770 C   0  0  0  0  0  0  0  0  0  0  0  0
   45.7790   32.5290   35.1540 N   0  0  0  0  0  0  0  0  0  0  0  0
   43.3460   33.1480   38.7470 C   0  0  0  0  0  0  0  0  0  0  0  0
   43.7090   33.9750   39.8490 C   0  0  0  0  0  0  0  0  0  0  0  0
   43.1280   34.8900   40.6590 C   0  0  0  0  0  0  0  0  0  0  0  0
   43.6930   35.6060   41.6970 C   0  0  0  0  0  0  0  0  0  0  0  0
   44.9730   35.3530   41.9190 N   0  0  0  0  0  0  0  0  0  0  0  0
   45.6280   34.4790   41.1870 C   0  0  0  0  0  0  0  0  0  0  0  0
   45.0080   33.8340   40.2060 N   0  0  0  0  0  0  0  0  0  0  0  0
   47.8100   35.1880   42.1060 C   0  0  0  0  0  0  0  0  0  0  0  0
   47.0700   34.2250   41.4710 C   0  0  0  0  0  0  0  0  0  0  0  0
   47.6260   33.0190   41.0850 C   0  0  0  0  0  0  0  0  0  0  0  0
   48.9560   32.7250   41.3210 C   0  0  0  0  0  0  0  0  0  0  0  0
   49.7960   31.6950   41.0910 N   0  0  0  0  0  0  0  0  0  0  0  0
   51.0170   32.0130   41.5710 C   0  0  0  0  0  0  0  0  0  0  0  0
   50.9330   33.2470   42.1000 N   0  0  0  0  0  0  0  0  0  0  0  0
   49.6770   33.7230   41.9660 C   0  0  0  0  0  0  0  0  0  0  0  0
   49.1610   34.9390   42.3680 C   0  0  0  0  0  0  0  0  0  0  0  0
   45.2127   31.9780   38.9913 H   0  0  0  0  0  0  0  0  0  0  0  0
   45.4252   30.0761   39.7771 H   0  0  0  0  0  0  0  0  0  0  0  0
   44.3595   30.7442   41.0147 H   0  0  0  0  0  0  0  0  0  0  0  0
   43.5789   28.2677   39.3037 H   0  0  0  0  0  0  0  0  0  0  0  0
   44.3979   28.0694   40.8376 H   0  0  0  0  0  0  0  0  0  0  0  0
   42.0345   28.1543   41.1518 H   0  0  0  0  0  0  0  0  0  0  0  0
   41.1884   29.1899   39.3984 H   0  0  0  0  0  0  0  0  0  0  0  0
   40.9169   30.2663   40.8725 H   0  0  0  0  0  0  0  0  0  0  0  0
   42.2763   31.8806   40.1428 H   0  0  0  0  0  0  0  0  0  0  0  0
   41.6945   31.2185   38.5494 H   0  0  0  0  0  0  0  0  0  0  0  0
   46.1397   33.2729   37.0818 H   0  0  0  0  0  0  0  0  0  0  0  0
   42.9645   30.4100   36.6830 H   0  0  0  0  0  0  0  0  0  0  0  0
   45.2548   31.6536   33.2984 H   0  0  0  0  0  0  0  0  0  0  0  0
   43.3658   33.7706   37.8404 H   0  0  0  0  0  0  0  0  0  0  0  0
   42.3550   32.7428   38.9995 H   0  0  0  0  0  0  0  0  0  0  0  0
   42.0639   35.0906   40.4653 H   0  0  0  0  0  0  0  0  0  0  0  0
   43.1217   36.3320   42.2941 H   0  0  0  0  0  0  0  0  0  0  0  0
   47.3490   36.1410   42.4047 H   0  0  0  0  0  0  0  0  0  0  0  0
   46.9942   32.2752   40.5775 H   0  0  0  0  0  0  0  0  0  0  0  0
   49.5467   30.8107   40.6254 H   0  0  0  0  0  0  0  0  0  0  0  0
   51.9156   31.3795   41.5360 H   0  0  0  0  0  0  0  0  0  0  0  0
   49.7899   35.6850   42.8760 H   0  0  0  0  0  0  0  0  0  0  0  0
  1 14  1  0
  1  2  1  0
  2  7  1  0
  2  3  1  0
  3  4  1  0
  4  5  1  0
  6  5  1  0
  7  6  1  0
  8  9  2  0
  9  1  1  0
 10  9  1  0
 11 10  2  0
 12 11  1  0
 12 13  2  0
 13  8  1  0
 14 15  1  0
 15 20  1  0
 15 16  2  0
 16 17  1  0
 17 18  2  0
 19 22  1  0
 19 18  1  0
 20 19  2  0
 21 29  2  0
 22 21  1  0
 23 24  1  0
 23 22  2  0
 24 28  2  0
 25 24  1  0
 25 26  1  0
 26 27  2  0
 28 27  1  0
 28 29  1  0
  1 30  1  1
  3 31  1  0
  3 32  1  0
  4 33  1  0
  4 34  1  0
  5 35  1  0
  6 36  1  0
  6 37  1  0
  7 38  1  0
  7 39  1  0
  8 40  1  0
 10 41  1  0
 12 42  1  0
 14 43  1  0
 14 44  1  0
 16 45  1  0
 17 46  1  0
 21 47  1  0
 23 48  1  0
 25 49  1  0
 26 50  1  0
 29 51  1  0
M  ISO  8  30   8  31  13  32  13  33  13  34  13  35   5  36  13  37  13
M  ISO  8  38  13  39  13  40  14  41  14  42  14  43   8  44   8  45  14
M  ISO  6  46  14  47  14  48  14  49   9  50  14  51  14
M  END
>  <minimizedAffinity>  (1) 
-4.94669008

>  <minimizedRMSD>  (1) 
4.54845047

$$$$
