
     RDKit          3D

 44 47  0  0  1  0  0  0  0  0999 V2000
   45.9050   33.1290   38.9990 C   0  0  1  0  0  0  0  0  0  0  0  0
   46.4570   33.4590   40.2840 N   0  0  0  0  0  0  0  0  0  0  0  0
   45.6370   34.3430   41.0310 C   0  0  0  0  0  0  0  0  0  0  0  0
   46.5430   34.8720   42.1630 C   0  0  0  0  0  0  0  0  0  0  0  0
   46.6800   33.7520   43.0060 N   0  0  0  0  0  0  0  0  0  0  0  0
   47.3020   32.6390   42.4200 C   0  0  0  0  0  0  0  0  0  0  0  0
   46.8310   32.3190   41.0150 C   0  0  0  0  0  0  0  0  0  0  0  0
   46.7250   32.2100   36.8360 C   0  0  0  0  0  0  0  0  0  0  0  0
   46.8220   33.0810   37.9020 C   0  0  0  0  0  0  0  0  0  0  0  0
   47.9140   33.9730   37.8730 C   0  0  0  0  0  0  0  0  0  0  0  0
   48.7920   33.9300   36.8240 N   0  0  0  0  0  0  0  0  0  0  0  0
   48.6380   33.0500   35.8100 C   0  0  0  0  0  0  0  0  0  0  0  0
   47.5920   32.1790   35.8150 N   0  0  0  0  0  0  0  0  0  0  0  0
   45.2030   31.7690   39.0980 C   0  0  0  0  0  0  0  0  0  0  0  0
   43.8720   31.7050   38.5900 C   0  0  0  0  0  0  0  0  0  0  0  0
   43.1590   30.9500   37.7210 C   0  0  0  0  0  0  0  0  0  0  0  0
   41.8320   31.0830   37.3640 C   0  0  0  0  0  0  0  0  0  0  0  0
   41.1770   32.0800   37.9500 N   0  0  0  0  0  0  0  0  0  0  0  0
   41.7920   32.8630   38.8070 C   0  0  0  0  0  0  0  0  0  0  0  0
   43.0690   32.6690   39.0960 N   0  0  0  0  0  0  0  0  0  0  0  0
   40.9670   33.9360   39.3930 C   0  0  0  0  0  0  0  0  0  0  0  0
   41.6210   35.0060   39.9640 C   0  0  0  0  0  0  0  0  0  0  0  0
   40.3050   36.0770   40.5550 S   0  0  0  0  0  0  0  0  0  0  0  0
   38.9920   34.8390   39.8980 C   0  0  0  0  0  0  0  0  0  0  0  0
   39.6650   34.0530   39.4670 N   0  0  0  0  0  0  0  0  0  0  0  0
   45.2223   33.9600   38.7680 H   0  0  0  0  0  0  0  0  0  0  0  0
   45.2859   35.1715   40.3983 H   0  0  0  0  0  0  0  0  0  0  0  0
   44.7394   33.8414   41.4219 H   0  0  0  0  0  0  0  0  0  0  0  0
   47.5190   35.1939   41.7709 H   0  0  0  0  0  0  0  0  0  0  0  0
   46.1287   35.7530   42.6751 H   0  0  0  0  0  0  0  0  0  0  0  0
   47.2375   34.0349   43.8246 H   0  0  0  0  0  0  0  0  0  0  0  0
   48.3845   32.8308   42.3835 H   0  0  0  0  0  0  0  0  0  0  0  0
   47.0379   31.7712   43.0422 H   0  0  0  0  0  0  0  0  0  0  0  0
   45.9633   31.6462   41.0818 H   0  0  0  0  0  0  0  0  0  0  0  0
   47.6750   31.8531   40.4853 H   0  0  0  0  0  0  0  0  0  0  0  0
   45.8859   31.4988   36.8238 H   0  0  0  0  0  0  0  0  0  0  0  0
   48.0590   34.6980   38.6875 H   0  0  0  0  0  0  0  0  0  0  0  0
   49.3590   33.0376   34.9794 H   0  0  0  0  0  0  0  0  0  0  0  0
   45.8090   31.0382   38.5424 H   0  0  0  0  0  0  0  0  0  0  0  0
   45.1154   31.5626   40.1749 H   0  0  0  0  0  0  0  0  0  0  0  0
   43.7062   30.1267   37.2386 H   0  0  0  0  0  0  0  0  0  0  0  0
   41.3487   30.4083   36.6421 H   0  0  0  0  0  0  0  0  0  0  0  0
   42.7063   35.1682   40.0408 H   0  0  0  0  0  0  0  0  0  0  0  0
   37.8937   34.8874   39.9343 H   0  0  0  0  0  0  0  0  0  0  0  0
  1 14  1  0
  1  2  1  0
  2  7  1  0
  2  3  1  0
  3  4  1  0
  4  5  1  0
  6  5  1  0
  7  6  1  0
  8  9  2  0
  9  1  1  0
 10  9  1  0
 11 10  2  0
 12 13  2  0
 12 11  1  0
 13  8  1  0
 15 20  1  0
 15 14  1  0
 16 15  2  0
 17 16  1  0
 17 18  2  0
 18 19  1  0
 19 20  2  0
 19 21  1  0
 21 25  1  0
 21 22  2  0
 22 23  1  0
 24 23  1  0
 25 24  2  0
  1 26  1  6
  3 27  1  0
  3 28  1  0
  4 29  1  0
  4 30  1  0
  5 31  1  0
  6 32  1  0
  6 33  1  0
  7 34  1  0
  7 35  1  0
  8 36  1  0
 10 37  1  0
 12 38  1  0
 14 39  1  0
 14 40  1  0
 16 41  1  0
 17 42  1  0
 22 43  1  0
 24 44  1  0
M  ISO  8  26   8  27  13  28  13  29  13  30  13  31   5  32  13  33  13
M  ISO  8  34  13  35  13  36  14  37  14  38  14  39   8  40   8  41  14
M  ISO  3  42  14  43  14  44  14
M  END
>  <minimizedAffinity>  (1) 
-4.46834707

>  <minimizedRMSD>  (1) 
7.2784462

$$$$
