
     RDKit          3D

 38 39  0  0  0  0  0  0  0  0999 V2000
   46.6390   33.1090   46.2680 C   0  0  0  0  0  0  0  0  0  0  0  0
   46.1020   32.1640   47.2520 C   0  0  0  0  0  0  0  0  0  0  0  0
   45.7490   32.3730   48.5720 C   0  0  0  0  0  0  0  0  0  0  0  0
   45.2510   31.4080   49.3890 C   0  0  0  0  0  0  0  0  0  0  0  0
   45.0880   30.1620   48.8750 C   0  0  0  0  0  0  0  0  0  0  0  0
   45.4340   29.9180   47.5500 C   0  0  0  0  0  0  0  0  0  0  0  0
   45.9340   30.9110   46.7490 C   0  0  0  0  0  0  0  0  0  0  0  0
   47.4970   29.7750   45.2940 C   0  0  0  0  0  0  0  0  0  0  0  0
   48.6380   29.7230   45.8820 O   0  0  0  0  0  0  0  0  0  0  0  0
   46.1780   30.3080   45.4720 N   0  0  0  0  0  0  0  0  0  0  0  0
   45.5300   33.8120   45.5290 C   0  0  0  0  0  0  0  0  0  0  0  0
   45.5920   34.8620   42.0190 C   0  0  0  0  0  0  0  0  0  0  0  0
   46.9550   34.7150   41.6790 C   0  0  0  0  0  0  0  0  0  0  0  0
   47.7980   34.2610   42.6720 C   0  0  0  0  0  0  0  0  0  0  0  0
   47.3100   33.9840   43.8890 N   0  0  0  0  0  0  0  0  0  0  0  0
   46.0090   34.1380   44.1670 C   0  0  0  0  0  0  0  0  0  0  0  0
   45.1600   34.5650   43.2690 N   0  0  0  0  0  0  0  0  0  0  0  0
   49.1750   34.0640   42.4990 N   0  0  0  0  0  0  0  0  0  0  0  0
   50.0460   32.7820   41.7800 S   0  0  0  0  0  0  0  0  0  0  0  0
   49.5460   32.4350   40.4300 O   0  0  0  0  0  0  0  0  0  0  0  0
   49.9110   31.5410   42.6400 O   0  0  0  0  0  0  0  0  0  0  0  0
   51.6830   33.1750   41.7580 O   0  0  0  0  0  0  0  0  0  0  0  0
   47.2550   33.8575   46.7879 H   0  0  0  0  0  0  0  0  0  0  0  0
   47.2436   32.5487   45.5396 H   0  0  0  0  0  0  0  0  0  0  0  0
   45.8793   33.3834   48.9870 H   0  0  0  0  0  0  0  0  0  0  0  0
   44.9882   31.6294   50.4339 H   0  0  0  0  0  0  0  0  0  0  0  0
   44.6856   29.3521   49.5012 H   0  0  0  0  0  0  0  0  0  0  0  0
   45.3035   28.9070   47.1367 H   0  0  0  0  0  0  0  0  0  0  0  0
   47.5492   29.2314   44.3392 H   0  0  0  0  0  0  0  0  0  0  0  0
   45.4587   30.2610   44.7362 H   0  0  0  0  0  0  0  0  0  0  0  0
   44.6505   33.1543   45.4659 H   0  0  0  0  0  0  0  0  0  0  0  0
   45.2464   34.7326   46.0601 H   0  0  0  0  0  0  0  0  0  0  0  0
   44.8762   35.2199   41.2643 H   0  0  0  0  0  0  0  0  0  0  0  0
   47.3264   34.9512   40.6709 H   0  0  0  0  0  0  0  0  0  0  0  0
   49.7637   34.8237   42.8695 H   0  0  0  0  0  0  0  0  0  0  0  0
   48.7355   31.8725   40.5128 H   0  0  0  0  0  0  0  0  0  0  0  0
   49.9389   31.7973   43.5958 H   0  0  0  0  0  0  0  0  0  0  0  0
   52.0157   33.2549   42.6870 H   0  0  0  0  0  0  0  0  0  0  0  0
  1  2  1  0
  2  3  2  0
  3  4  1  0
  5  4  2  0
  6  5  1  0
  7  2  1  0
  7  6  2  0
  8 10  1  0
  8  9  2  0
 10  7  1  0
 11  1  1  0
 12 17  2  0
 13 12  1  0
 13 14  2  0
 14 15  1  0
 15 16  2  0
 16 11  1  0
 17 16  1  0
 18 14  1  0
 19 18  1  0
 19 21  1  0
 20 19  1  0
 22 19  1  0
  1 23  1  0
  1 24  1  0
  3 25  1  0
  4 26  1  0
  5 27  1  0
  6 28  1  0
  8 29  1  0
 10 30  1  0
 11 31  1  0
 11 32  1  0
 12 33  1  0
 13 34  1  0
 18 35  1  0
 20 36  1  0
 21 37  1  0
 22 38  1  0
M  ISO  8  23   8  24   8  25  14  26  14  27  14  28  14  29   6  31   8
M  ISO  6  32   8  33  14  34  14  36   3  37   3  38   3
M  END
>  <minimizedAffinity>  (1) 
-5.40335464

>  <minimizedRMSD>  (1) 
2.60424328

$$$$
