
     RDKit          3D

 33 34  0  0  0  0  0  0  0  0999 V2000
   47.1080   32.5970   46.0900 C   0  0  0  0  0  0  0  0  0  0  0  0
   46.3470   31.9090   47.1260 C   0  0  0  0  0  0  0  0  0  0  0  0
   45.3290   32.3750   47.9110 C   0  0  0  0  0  0  0  0  0  0  0  0
   44.6850   31.6300   48.8480 C   0  0  0  0  0  0  0  0  0  0  0  0
   45.0710   30.3390   49.0220 C   0  0  0  0  0  0  0  0  0  0  0  0
   46.1050   29.8350   48.2380 C   0  0  0  0  0  0  0  0  0  0  0  0
   46.7400   30.6160   47.2960 C   0  0  0  0  0  0  0  0  0  0  0  0
   48.9710   29.7010   47.4440 C   0  0  0  0  0  0  0  0  0  0  0  0
   49.5470   30.2020   48.4790 O   0  0  0  0  0  0  0  0  0  0  0  0
   47.7420   29.7800   46.7070 N   0  0  0  0  0  0  0  0  0  0  0  0
   46.6400   32.2410   44.7070 C   0  0  0  0  0  0  0  0  0  0  0  0
   45.3800   35.3440   43.2300 C   0  0  0  0  0  0  0  0  0  0  0  0
   46.4420   35.7390   42.3800 C   0  0  0  0  0  0  0  0  0  0  0  0
   47.5610   34.9040   42.3570 C   0  0  0  0  0  0  0  0  0  0  0  0
   47.5890   33.7970   43.1140 N   0  0  0  0  0  0  0  0  0  0  0  0
   46.5390   33.4750   43.9060 C   0  0  0  0  0  0  0  0  0  0  0  0
   45.4630   34.2170   43.9710 N   0  0  0  0  0  0  0  0  0  0  0  0
   48.7340   35.2420   41.4860 C   0  0  0  0  0  0  0  0  0  0  0  0
   48.3860   35.2350   40.1450 F   0  0  0  0  0  0  0  0  0  0  0  0
   49.7960   34.4010   41.7670 F   0  0  0  0  0  0  0  0  0  0  0  0
   49.1090   36.5400   41.7940 F   0  0  0  0  0  0  0  0  0  0  0  0
   46.9981   33.6822   46.2322 H   0  0  0  0  0  0  0  0  0  0  0  0
   48.1587   32.2842   46.1806 H   0  0  0  0  0  0  0  0  0  0  0  0
   45.0109   33.4193   47.7756 H   0  0  0  0  0  0  0  0  0  0  0  0
   43.8719   32.0615   49.4502 H   0  0  0  0  0  0  0  0  0  0  0  0
   44.5749   29.7028   49.7697 H   0  0  0  0  0  0  0  0  0  0  0  0
   46.4224   28.7905   48.3731 H   0  0  0  0  0  0  0  0  0  0  0  0
   49.6413   28.9714   46.9660 H   0  0  0  0  0  0  0  0  0  0  0  0
   47.5924   29.2741   45.8223 H   0  0  0  0  0  0  0  0  0  0  0  0
   47.3604   31.5543   44.2385 H   0  0  0  0  0  0  0  0  0  0  0  0
   45.6575   31.7492   44.7604 H   0  0  0  0  0  0  0  0  0  0  0  0
   44.4735   35.9644   43.2878 H   0  0  0  0  0  0  0  0  0  0  0  0
   46.3882   36.6536   41.7712 H   0  0  0  0  0  0  0  0  0  0  0  0
  1  2  1  0
  2  7  1  0
  2  3  2  0
  3  4  1  0
  4  5  2  0
  6  5  1  0
  7  6  2  0
  8  9  2  0
 10  7  1  0
 10  8  1  0
 11  1  1  0
 12 17  2  0
 13 12  1  0
 14 13  2  0
 14 15  1  0
 15 16  2  0
 16 17  1  0
 16 11  1  0
 18 20  1  0
 18 21  1  0
 18 14  1  0
 19 18  1  0
  1 22  1  0
  1 23  1  0
  3 24  1  0
  4 25  1  0
  5 26  1  0
  6 27  1  0
  8 28  1  0
 10 29  1  0
 11 30  1  0
 11 31  1  0
 12 32  1  0
 13 33  1  0
M  ISO  8  22   8  23   8  24  14  25  14  26  14  27  14  28   6  30   8
M  ISO  3  31   8  32  14  33  14
M  END
>  <minimizedAffinity>  (1) 
-5.24019289

>  <minimizedRMSD>  (1) 
1.61114979

$$$$
