
     RDKit          3D

 16 16  0  0  0  0  0  0  0  0999 V2000
   44.5580   36.0390   44.4840 C   0  0  0  0  0  0  0  0  0  0  0  0
   45.2150   35.9500   43.2390 C   0  0  0  0  0  0  0  0  0  0  0  0
   46.0820   34.8760   43.0260 C   0  0  0  0  0  0  0  0  0  0  0  0
   46.2370   33.9770   44.0400 N   0  0  0  0  0  0  0  0  0  0  0  0
   45.5940   34.0930   45.2140 C   0  0  0  0  0  0  0  0  0  0  0  0
   44.7600   35.1140   45.4400 N   0  0  0  0  0  0  0  0  0  0  0  0
   46.7830   34.7670   41.7200 C   0  0  0  0  0  0  0  0  0  0  0  0
   48.1890   35.3090   41.8780 C   0  0  0  0  0  0  0  0  0  0  0  0
   43.8709   36.8763   44.6760 H   0  0  0  0  0  0  0  0  0  0  0  0
   45.0490   36.7058   42.4572 H   0  0  0  0  0  0  0  0  0  0  0  0
   45.7554   33.3393   45.9987 H   0  0  0  0  0  0  0  0  0  0  0  0
   46.2438   35.3519   40.9603 H   0  0  0  0  0  0  0  0  0  0  0  0
   46.8200   33.7151   41.4006 H   0  0  0  0  0  0  0  0  0  0  0  0
   48.4283   35.4013   42.9477 H   0  0  0  0  0  0  0  0  0  0  0  0
   48.9028   34.6216   41.4005 H   0  0  0  0  0  0  0  0  0  0  0  0
   48.2567   36.2977   41.4005 H   0  0  0  0  0  0  0  0  0  0  0  0
  1  6  2  0
  2  1  1  0
  3  2  2  0
  3  4  1  0
  4  5  2  0
  5  6  1  0
  7  8  1  0
  7  3  1  0
  1  9  1  0
  2 10  1  0
  5 11  1  0
  7 12  1  0
  7 13  1  0
  8 14  1  0
  8 15  1  0
  8 16  1  0
M  ISO  8   9  14  10  14  11  14  12   8  13   8  14   8  15   8  16   8
M  END
>  <minimizedAffinity>  (1) 
-3.38496327

>  <minimizedRMSD>  (1) 
0.62732482

$$$$
