
     RDKit          3D

 32 33  0  0  0  0  0  0  0  0999 V2000
   46.6450   32.5680   45.7800 C   0  0  0  0  0  0  0  0  0  0  0  0
   46.0970   31.8410   46.9320 C   0  0  0  0  0  0  0  0  0  0  0  0
   45.3670   32.3270   47.9950 C   0  0  0  0  0  0  0  0  0  0  0  0
   44.8990   31.5570   49.0110 C   0  0  0  0  0  0  0  0  0  0  0  0
   45.1670   30.2170   48.9830 C   0  0  0  0  0  0  0  0  0  0  0  0
   45.8980   29.7140   47.9250 C   0  0  0  0  0  0  0  0  0  0  0  0
   46.3640   30.5150   46.9010 C   0  0  0  0  0  0  0  0  0  0  0  0
   48.4250   29.3580   46.4030 C   0  0  0  0  0  0  0  0  0  0  0  0
   49.3040   29.6910   47.2810 O   0  0  0  0  0  0  0  0  0  0  0  0
   47.0750   29.6440   46.0160 N   0  0  0  0  0  0  0  0  0  0  0  0
   45.8290   32.3400   44.5400 C   0  0  0  0  0  0  0  0  0  0  0  0
   44.7170   35.8260   44.4020 C   0  0  0  0  0  0  0  0  0  0  0  0
   44.4450   36.0120   43.0270 C   0  0  0  0  0  0  0  0  0  0  0  0
   44.6630   34.9180   42.2040 C   0  0  0  0  0  0  0  0  0  0  0  0
   45.1110   33.7530   42.7250 N   0  0  0  0  0  0  0  0  0  0  0  0
   45.3480   33.6460   44.0440 C   0  0  0  0  0  0  0  0  0  0  0  0
   45.1620   34.6420   44.8710 N   0  0  0  0  0  0  0  0  0  0  0  0
   44.4360   34.9450   40.7940 N   0  0  0  0  0  0  0  0  0  0  0  0
   46.6532   33.6440   46.0085 H   0  0  0  0  0  0  0  0  0  0  0  0
   47.6635   32.1969   45.5933 H   0  0  0  0  0  0  0  0  0  0  0  0
   45.1500   33.4050   48.0222 H   0  0  0  0  0  0  0  0  0  0  0  0
   44.3197   31.9999   49.8345 H   0  0  0  0  0  0  0  0  0  0  0  0
   44.8086   29.5546   49.7847 H   0  0  0  0  0  0  0  0  0  0  0  0
   46.1171   28.6364   47.8968 H   0  0  0  0  0  0  0  0  0  0  0  0
   48.8503   28.6039   45.7244 H   0  0  0  0  0  0  0  0  0  0  0  0
   46.6485   29.2518   45.1644 H   0  0  0  0  0  0  0  0  0  0  0  0
   46.4506   31.8579   43.7711 H   0  0  0  0  0  0  0  0  0  0  0  0
   44.9736   31.6872   44.7684 H   0  0  0  0  0  0  0  0  0  0  0  0
   44.5631   36.6611   45.1013 H   0  0  0  0  0  0  0  0  0  0  0  0
   44.0805   36.9718   42.6321 H   0  0  0  0  0  0  0  0  0  0  0  0
   44.0947   35.8062   40.3437 H   0  0  0  0  0  0  0  0  0  0  0  0
   44.6136   34.1033   40.2276 H   0  0  0  0  0  0  0  0  0  0  0  0
  1  2  1  0
  2  3  2  0
  3  4  1  0
  5  4  2  0
  6  5  1  0
  7  2  1  0
  7  6  2  0
  8  9  2  0
 10  8  1  0
 10  7  1  0
 11  1  1  0
 12 17  2  0
 13 12  1  0
 14 15  1  0
 14 13  2  0
 15 16  2  0
 16 11  1  0
 16 17  1  0
 18 14  1  0
  1 19  1  0
  1 20  1  0
  3 21  1  0
  4 22  1  0
  5 23  1  0
  6 24  1  0
  8 25  1  0
 10 26  1  0
 11 27  1  0
 11 28  1  0
 12 29  1  0
 13 30  1  0
 18 31  1  0
 18 32  1  0
M  ISO  8  19   8  20   8  21  14  22  14  23  14  24  14  25   6  27   8
M  ISO  3  28   8  29  14  30  14
M  END
>  <minimizedAffinity>  (1) 
-4.67681551

>  <minimizedRMSD>  (1) 
0.759449601

$$$$
