
     RDKit          3D

 30 32  0  0  1  0  0  0  0  0999 V2000
   47.6340   35.4610   41.9100 C   0  0  0  0  0  0  0  0  0  0  0  0
   48.8970   34.7600   41.5200 C   0  0  1  0  0  0  0  0  0  0  0  0
   50.0100   34.7600   42.5220 C   0  0  0  0  0  0  0  0  0  0  0  0
   49.2330   33.5300   42.2170 C   0  0  2  0  0  0  0  0  0  0  0  0
   50.0660   32.5620   41.2720 C   0  0  0  0  0  0  0  0  0  0  0  0
   51.3510   32.2640   41.5190 C   0  0  0  0  0  0  0  0  0  0  0  0
   51.9430   31.4220   40.6290 C   0  0  0  0  0  0  0  0  0  0  0  0
   51.2510   30.9220   39.5540 C   0  0  0  0  0  0  0  0  0  0  0  0
   49.5690   31.7500   39.8530 S   0  0  0  0  0  0  0  0  0  0  0  0
   46.5970   34.3610   42.1050 C   0  0  0  0  0  0  0  0  0  0  0  0
   44.4770   35.9380   44.7750 C   0  0  0  0  0  0  0  0  0  0  0  0
   45.1040   35.7160   43.5120 C   0  0  0  0  0  0  0  0  0  0  0  0
   45.8940   34.6060   43.3960 C   0  0  0  0  0  0  0  0  0  0  0  0
   46.0570   33.7660   44.4560 N   0  0  0  0  0  0  0  0  0  0  0  0
   45.4620   33.9920   45.6240 C   0  0  0  0  0  0  0  0  0  0  0  0
   44.6770   35.0650   45.7960 N   0  0  0  0  0  0  0  0  0  0  0  0
   47.3166   36.1510   41.1143 H   0  0  0  0  0  0  0  0  0  0  0  0
   47.7670   36.0609   42.8224 H   0  0  0  0  0  0  0  0  0  0  0  0
   48.7992   35.0438   40.4617 H   0  0  0  0  0  0  0  0  0  0  0  0
   51.0548   34.8526   42.1905 H   0  0  0  0  0  0  0  0  0  0  0  0
   50.2538   35.3332   43.4286 H   0  0  0  0  0  0  0  0  0  0  0  0
   48.6715   32.7973   42.8153 H   0  0  0  0  0  0  0  0  0  0  0  0
   51.8909   32.6740   42.3852 H   0  0  0  0  0  0  0  0  0  0  0  0
   52.9955   31.1367   40.7736 H   0  0  0  0  0  0  0  0  0  0  0  0
   51.5760   30.2410   38.7536 H   0  0  0  0  0  0  0  0  0  0  0  0
   45.8729   34.3812   41.2772 H   0  0  0  0  0  0  0  0  0  0  0  0
   47.0867   33.3761   42.1204 H   0  0  0  0  0  0  0  0  0  0  0  0
   43.8315   36.8166   44.9214 H   0  0  0  0  0  0  0  0  0  0  0  0
   44.9581   36.4075   42.6691 H   0  0  0  0  0  0  0  0  0  0  0  0
   45.6157   33.2910   46.4576 H   0  0  0  0  0  0  0  0  0  0  0  0
  1 10  1  0
  2  1  1  0
  2  4  1  0
  2  3  1  0
  4  3  1  0
  5  6  2  0
  5  4  1  0
  7  6  1  0
  8  9  1  0
  8  7  2  0
  9  5  1  0
 10 13  1  0
 11 16  2  0
 12 11  1  0
 13 12  2  0
 13 14  1  0
 14 15  2  0
 15 16  1  0
  1 17  1  0
  1 18  1  0
  2 19  1  6
  3 20  1  0
  3 21  1  0
  4 22  1  1
  6 23  1  0
  7 24  1  0
  8 25  1  0
 10 26  1  0
 10 27  1  0
 11 28  1  0
 12 29  1  0
 15 30  1  0
M  ISO  8  17   8  18   8  19  13  20  13  21  13  22  13  23  14  24  14
M  ISO  6  25  14  26   8  27   8  28  14  29  14  30  14
M  END
>  <minimizedAffinity>  (1) 
-4.74204445

>  <minimizedRMSD>  (1) 
1.18332279

$$$$
