
     RDKit          3D

 44 46  0  0  0  0  0  0  0  0999 V2000
   46.6100   30.8960   44.1800 C   0  0  0  0  0  0  0  0  0  0  0  0
   47.5830   34.2990   43.2230 C   0  0  0  0  0  0  0  0  0  0  0  0
   46.5690   34.6690   42.3160 C   0  0  0  0  0  0  0  0  0  0  0  0
   45.5880   33.7250   42.0720 C   0  0  0  0  0  0  0  0  0  0  0  0
   45.6250   32.5280   42.6790 N   0  0  0  0  0  0  0  0  0  0  0  0
   46.6260   32.2300   43.5410 C   0  0  0  0  0  0  0  0  0  0  0  0
   47.5840   33.0760   43.8180 N   0  0  0  0  0  0  0  0  0  0  0  0
   44.4990   33.9450   41.1840 N   0  0  0  0  0  0  0  0  0  0  0  0
   43.1920   34.4580   41.5450 C   0  0  0  0  0  0  0  0  0  0  0  0
   42.2120   33.3160   41.4030 C   0  0  0  0  0  0  0  0  0  0  0  0
   42.2680   32.7900   40.0770 N   0  0  0  0  0  0  0  0  0  0  0  0
   43.1750   33.4370   39.1850 C   0  0  0  0  0  0  0  0  0  0  0  0
   44.5550   33.6770   39.7600 C   0  0  0  0  0  0  0  0  0  0  0  0
   46.0640   31.0450   45.5770 C   0  0  0  0  0  0  0  0  0  0  0  0
   45.4040   29.8260   46.0320 C   0  0  0  0  0  0  0  0  0  0  0  0
   44.5030   29.0200   45.3700 C   0  0  0  0  0  0  0  0  0  0  0  0
   43.9560   27.8940   45.8990 C   0  0  0  0  0  0  0  0  0  0  0  0
   44.3150   27.5320   47.1640 C   0  0  0  0  0  0  0  0  0  0  0  0
   45.2160   28.3230   47.8500 C   0  0  0  0  0  0  0  0  0  0  0  0
   45.7610   29.4650   47.2930 C   0  0  0  0  0  0  0  0  0  0  0  0
   45.9910   30.9020   49.2220 C   0  0  0  0  0  0  0  0  0  0  0  0
   44.8440   31.4290   49.4630 O   0  0  0  0  0  0  0  0  0  0  0  0
   46.6230   30.0200   48.2900 N   0  0  0  0  0  0  0  0  0  0  0  0
   47.6321   30.4916   44.2216 H   0  0  0  0  0  0  0  0  0  0  0  0
   45.9802   30.2060   43.5993 H   0  0  0  0  0  0  0  0  0  0  0  0
   48.3879   35.0124   43.4536 H   0  0  0  0  0  0  0  0  0  0  0  0
   46.5586   35.6551   41.8287 H   0  0  0  0  0  0  0  0  0  0  0  0
   43.2022   34.8196   42.5838 H   0  0  0  0  0  0  0  0  0  0  0  0
   42.9089   35.3000   40.8963 H   0  0  0  0  0  0  0  0  0  0  0  0
   42.4691   32.5233   42.1210 H   0  0  0  0  0  0  0  0  0  0  0  0
   41.1951   33.6842   41.6040 H   0  0  0  0  0  0  0  0  0  0  0  0
   42.5429   31.7995   40.1423 H   0  0  0  0  0  0  0  0  0  0  0  0
   42.7456   34.4100   38.9040 H   0  0  0  0  0  0  0  0  0  0  0  0
   43.3061   32.7615   38.3268 H   0  0  0  0  0  0  0  0  0  0  0  0
   45.1738   32.7838   39.5886 H   0  0  0  0  0  0  0  0  0  0  0  0
   44.9885   34.5560   39.2605 H   0  0  0  0  0  0  0  0  0  0  0  0
   46.8936   31.2776   46.2609 H   0  0  0  0  0  0  0  0  0  0  0  0
   45.3199   31.8551   45.5694 H   0  0  0  0  0  0  0  0  0  0  0  0
   44.2082   29.3060   44.3496 H   0  0  0  0  0  0  0  0  0  0  0  0
   43.2414   27.2895   45.3212 H   0  0  0  0  0  0  0  0  0  0  0  0
   43.8952   26.6278   47.6289 H   0  0  0  0  0  0  0  0  0  0  0  0
   45.5088   28.0355   48.8706 H   0  0  0  0  0  0  0  0  0  0  0  0
   46.7211   31.2366   49.9737 H   0  0  0  0  0  0  0  0  0  0  0  0
   47.6283   29.8001   48.3339 H   0  0  0  0  0  0  0  0  0  0  0  0
  1 14  1  0
  2  7  2  0
  3  2  1  0
  4  3  2  0
  4  5  1  0
  5  6  2  0
  6  7  1  0
  6  1  1  0
  8  9  1  0
  8  4  1  0
 10  9  1  0
 11 10  1  0
 12 13  1  0
 12 11  1  0
 13  8  1  0
 14 15  1  0
 15 20  2  0
 16 17  2  0
 16 15  1  0
 17 18  1  0
 18 19  2  0
 20 19  1  0
 20 23  1  0
 21 22  2  0
 23 21  1  0
  1 24  1  0
  1 25  1  0
  2 26  1  0
  3 27  1  0
  9 28  1  0
  9 29  1  0
 10 30  1  0
 10 31  1  0
 11 32  1  0
 12 33  1  0
 12 34  1  0
 13 35  1  0
 13 36  1  0
 14 37  1  0
 14 38  1  0
 16 39  1  0
 17 40  1  0
 18 41  1  0
 19 42  1  0
 21 43  1  0
 23 44  1  0
M  ISO  8  24   8  25   8  26  14  27  14  28  13  29  13  30  13  31  13
M  ISO  8  32   5  33  13  34  13  35  13  36  13  37   8  38   8  39  14
M  ISO  4  40  14  41  14  42  14  43   6
M  END
>  <minimizedAffinity>  (1) 
-4.37544012

>  <minimizedRMSD>  (1) 
3.66709805

$$$$
