
     RDKit          3D

 36 38  0  0  1  0  0  0  0  0999 V2000
   44.7500   32.9880   41.1700 Br  0  0  0  0  0  0  0  0  0  0  0  0
   46.3980   33.9320   40.9170 C   0  0  0  0  0  0  0  0  0  0  0  0
   46.8900   34.7390   41.9080 C   0  0  0  0  0  0  0  0  0  0  0  0
   48.0920   35.4410   41.7480 C   0  0  0  0  0  0  0  0  0  0  0  0
   48.7570   35.2870   40.5630 C   0  0  0  0  0  0  0  0  0  0  0  0
   48.2320   34.4690   39.5930 C   0  0  0  0  0  0  0  0  0  0  0  0
   47.0760   33.7880   39.7300 C   0  0  0  0  0  0  0  0  0  0  0  0
   46.6230   32.9640   38.6560 N   0  0  0  0  0  0  0  0  0  0  0  0
   45.9070   33.3780   37.4530 C   0  0  0  0  0  0  0  0  0  0  0  0
   44.9380   32.3150   36.9940 C   0  0  0  0  0  0  0  0  0  0  0  0
   45.6150   31.0920   36.6180 N   0  0  0  0  0  0  0  0  0  0  0  0
   46.9560   31.1190   37.1910 C   0  0  0  0  0  0  0  0  0  0  0  0
   46.8550   31.5150   38.6640 C   0  0  1  0  0  0  0  0  0  0  0  0
   48.0910   31.1630   39.3960 C   0  0  0  0  0  0  0  0  0  0  0  0
   49.1890   31.0940   38.8320 O   0  0  0  0  0  0  0  0  0  0  0  0
   45.6260   34.0610   45.2770 C   0  0  0  0  0  0  0  0  0  0  0  0
   44.7050   35.0990   45.5130 C   0  0  0  0  0  0  0  0  0  0  0  0
   44.5430   36.0170   44.4870 C   0  0  0  0  0  0  0  0  0  0  0  0
   45.2500   35.8850   43.3430 N   0  0  0  0  0  0  0  0  0  0  0  0
   46.1340   34.8630   43.1540 C   0  0  0  0  0  0  0  0  0  0  0  0
   46.3090   33.9520   44.1460 N   0  0  0  0  0  0  0  0  0  0  0  0
   48.4852   36.0903   42.5441 H   0  0  0  0  0  0  0  0  0  0  0  0
   49.7061   35.8148   40.3880 H   0  0  0  0  0  0  0  0  0  0  0  0
   48.7867   34.3630   38.6491 H   0  0  0  0  0  0  0  0  0  0  0  0
   45.3493   34.3013   37.6686 H   0  0  0  0  0  0  0  0  0  0  0  0
   46.6430   33.5438   36.6525 H   0  0  0  0  0  0  0  0  0  0  0  0
   44.2368   32.0958   37.8127 H   0  0  0  0  0  0  0  0  0  0  0  0
   44.4081   32.6967   36.1088 H   0  0  0  0  0  0  0  0  0  0  0  0
   45.0964   30.2801   36.9824 H   0  0  0  0  0  0  0  0  0  0  0  0
   47.4141   30.1225   37.1067 H   0  0  0  0  0  0  0  0  0  0  0  0
   47.5786   31.8470   36.6503 H   0  0  0  0  0  0  0  0  0  0  0  0
   46.0443   30.9805   39.1808 H   0  0  0  0  0  0  0  0  0  0  0  0
   48.0315   30.9564   40.4748 H   0  0  0  0  0  0  0  0  0  0  0  0
   45.7857   33.3090   46.0638 H   0  0  0  0  0  0  0  0  0  0  0  0
   44.1460   35.1772   46.4572 H   0  0  0  0  0  0  0  0  0  0  0  0
   43.8384   36.8535   44.6042 H   0  0  0  0  0  0  0  0  0  0  0  0
  2  1  1  0
  2  3  2  0
  3 20  1  0
  4  3  1  0
  5  4  2  0
  6  7  2  0
  6  5  1  0
  7  2  1  0
  8 13  1  0
  8  7  1  0
  9  8  1  0
 10  9  1  0
 11 10  1  0
 11 12  1  0
 12 13  1  0
 13 14  1  0
 15 14  2  0
 16 17  2  0
 18 17  1  0
 19 18  2  0
 20 19  1  0
 20 21  2  0
 21 16  1  0
  4 22  1  0
  5 23  1  0
  6 24  1  0
  9 25  1  0
  9 26  1  0
 10 27  1  0
 10 28  1  0
 11 29  1  0
 12 30  1  0
 12 31  1  0
 13 32  1  1
 14 33  1  0
 16 34  1  0
 17 35  1  0
 18 36  1  0
M  ISO  8  22  14  23  14  24  14  25  13  26  13  27  13  28  13  29   5
M  ISO  7  30  13  31  13  32  13  33   6  34  14  35  14  36  14
M  END
>  <minimizedAffinity>  (1) 
-5.28168917

>  <minimizedRMSD>  (1) 
0.229754001

$$$$
