
     RDKit          3D

 53 57  0  0  1  0  0  0  0  0999 V2000
   47.6200   35.4270   41.8860 C   0  0  0  0  0  0  0  0  0  0  0  0
   48.9100   34.7640   41.5410 C   0  0  1  0  0  0  0  0  0  0  0  0
   50.0210   34.8480   42.5450 C   0  0  0  0  0  0  0  0  0  0  0  0
   49.2950   33.5760   42.2950 C   0  0  2  0  0  0  0  0  0  0  0  0
   50.0690   32.6220   41.5080 N   0  0  0  0  0  0  0  0  0  0  0  0
   49.4560   32.1730   40.3350 C   0  0  0  0  0  0  0  0  0  0  0  0
   50.4390   31.1950   39.7080 C   0  0  0  0  0  0  0  0  0  0  0  0
   50.6330   30.0470   40.5170 N   0  0  0  0  0  0  0  0  0  0  0  0
   50.4540   30.3000   41.9320 C   0  0  0  0  0  0  0  0  0  0  0  0
   50.8730   31.7370   42.2570 C   0  0  0  0  0  0  0  0  0  0  0  0
   46.6270   34.3090   42.1210 C   0  0  0  0  0  0  0  0  0  0  0  0
   44.5070   35.8910   44.7700 C   0  0  0  0  0  0  0  0  0  0  0  0
   45.1430   35.6760   43.5290 C   0  0  0  0  0  0  0  0  0  0  0  0
   45.9310   34.5770   43.4140 C   0  0  0  0  0  0  0  0  0  0  0  0
   46.0560   33.7630   44.4820 N   0  0  0  0  0  0  0  0  0  0  0  0
   45.4630   33.9550   45.6540 C   0  0  0  0  0  0  0  0  0  0  0  0
   44.6880   35.0270   45.7820 N   0  0  0  0  0  0  0  0  0  0  0  0
   45.8000   32.8960   46.5970 C   0  0  0  0  0  0  0  0  0  0  0  0
   45.3340   32.8820   47.8940 C   0  0  0  0  0  0  0  0  0  0  0  0
   45.6140   31.9140   48.8260 C   0  0  0  0  0  0  0  0  0  0  0  0
   46.4180   30.8590   48.4870 C   0  0  0  0  0  0  0  0  0  0  0  0
   46.9180   30.8060   47.2140 C   0  0  0  0  0  0  0  0  0  0  0  0
   47.7260   29.7410   46.8750 C   0  0  0  0  0  0  0  0  0  0  0  0
   48.2630   29.6270   45.6060 C   0  0  0  0  0  0  0  0  0  0  0  0
   47.9460   30.6320   44.7070 C   0  0  0  0  0  0  0  0  0  0  0  0
   47.1390   31.6690   45.0910 C   0  0  0  0  0  0  0  0  0  0  0  0
   46.5960   31.8100   46.3320 C   0  0  0  0  0  0  0  0  0  0  0  0
   47.2855   36.0675   41.0566 H   0  0  0  0  0  0  0  0  0  0  0  0
   47.7214   36.0694   42.7732 H   0  0  0  0  0  0  0  0  0  0  0  0
   48.8049   35.0005   40.4719 H   0  0  0  0  0  0  0  0  0  0  0  0
   51.0622   34.9667   42.2106 H   0  0  0  0  0  0  0  0  0  0  0  0
   50.2394   35.4689   43.4264 H   0  0  0  0  0  0  0  0  0  0  0  0
   48.7579   32.8530   42.9265 H   0  0  0  0  0  0  0  0  0  0  0  0
   48.5068   31.6677   40.5669 H   0  0  0  0  0  0  0  0  0  0  0  0
   49.2198   33.0048   39.6551 H   0  0  0  0  0  0  0  0  0  0  0  0
   50.0498   30.8783   38.7291 H   0  0  0  0  0  0  0  0  0  0  0  0
   51.4077   31.7057   39.6039 H   0  0  0  0  0  0  0  0  0  0  0  0
   49.9574   29.3258   40.2268 H   0  0  0  0  0  0  0  0  0  0  0  0
   49.3959   30.1588   42.1976 H   0  0  0  0  0  0  0  0  0  0  0  0
   51.0765   29.6000   42.5086 H   0  0  0  0  0  0  0  0  0  0  0  0
   51.9306   31.8833   41.9922 H   0  0  0  0  0  0  0  0  0  0  0  0
   50.7440   31.9314   43.3320 H   0  0  0  0  0  0  0  0  0  0  0  0
   45.8943   34.2815   41.3010 H   0  0  0  0  0  0  0  0  0  0  0  0
   47.1443   33.3390   42.1585 H   0  0  0  0  0  0  0  0  0  0  0  0
   43.8603   36.7699   44.9091 H   0  0  0  0  0  0  0  0  0  0  0  0
   45.0056   36.3716   42.6880 H   0  0  0  0  0  0  0  0  0  0  0  0
   44.6856   33.7134   48.2075 H   0  0  0  0  0  0  0  0  0  0  0  0
   45.1945   31.9856   49.8403 H   0  0  0  0  0  0  0  0  0  0  0  0
   46.6562   30.0736   49.2194 H   0  0  0  0  0  0  0  0  0  0  0  0
   47.9470   28.9692   47.6269 H   0  0  0  0  0  0  0  0  0  0  0  0
   48.9086   28.7819   45.3249 H   0  0  0  0  0  0  0  0  0  0  0  0
   48.3437   30.5968   43.6820 H   0  0  0  0  0  0  0  0  0  0  0  0
   46.9129   32.4439   44.3437 H   0  0  0  0  0  0  0  0  0  0  0  0
  1 11  1  0
  2  1  1  0
  2  4  1  0
  2  3  1  0
  4  3  1  0
  5 10  1  0
  5  4  1  0
  6  5  1  0
  7  6  1  0
  7  8  1  0
  8  9  1  0
  9 10  1  0
 11 14  1  0
 12 17  2  0
 13 12  1  0
 14 13  2  0
 14 15  1  0
 15 16  2  0
 16 17  1  0
 16 18  1  0
 18 19  2  0
 19 20  1  0
 21 20  2  0
 22 21  1  0
 23 22  2  0
 24 23  1  0
 25 26  1  0
 25 24  2  0
 26 27  2  0
 27 18  1  0
 27 22  1  0
  1 28  1  0
  1 29  1  0
  2 30  1  6
  3 31  1  0
  3 32  1  0
  4 33  1  1
  6 34  1  0
  6 35  1  0
  7 36  1  0
  7 37  1  0
  8 38  1  0
  9 39  1  0
  9 40  1  0
 10 41  1  0
 10 42  1  0
 11 43  1  0
 11 44  1  0
 12 45  1  0
 13 46  1  0
 19 47  1  0
 20 48  1  0
 21 49  1  0
 23 50  1  0
 24 51  1  0
 25 52  1  0
 26 53  1  0
M  ISO  8  28   8  29   8  30  13  31  13  32  13  33  13  34  13  35  13
M  ISO  8  36  13  37  13  38   5  39  13  40  13  41  13  42  13  43   8
M  ISO  8  44   8  45  14  46  14  47  14  48  14  49  14  50  14  51  14
M  ISO  2  52  14  53  14
M  END
>  <minimizedAffinity>  (1) 
-6.64393377

>  <minimizedRMSD>  (1) 
0.721403122

$$$$
