
     RDKit          3D

 46 49  0  0  1  0  0  0  0  0999 V2000
   48.7990   34.8040   41.5160 C   0  0  1  0  0  0  0  0  0  0  0  0
   49.9470   34.9210   42.4650 C   0  0  0  0  0  0  0  0  0  0  0  0
   49.2950   33.6190   42.2010 C   0  0  2  0  0  0  0  0  0  0  0  0
   50.0990   32.7490   41.3630 N   0  0  0  0  0  0  0  0  0  0  0  0
   49.4340   32.2540   40.2130 C   0  0  0  0  0  0  0  0  0  0  0  0
   50.4390   31.3820   39.4890 C   0  0  0  0  0  0  0  0  0  0  0  0
   50.8420   30.2590   40.2790 N   0  0  0  0  0  0  0  0  0  0  0  0
   50.7420   30.4780   41.7000 C   0  0  0  0  0  0  0  0  0  0  0  0
   51.0400   31.9430   42.0170 C   0  0  0  0  0  0  0  0  0  0  0  0
   47.4780   35.3540   41.9590 C   0  0  0  0  0  0  0  0  0  0  0  0
   46.5920   34.1710   42.2340 C   0  0  0  0  0  0  0  0  0  0  0  0
   44.5150   35.5680   45.0230 C   0  0  0  0  0  0  0  0  0  0  0  0
   45.0940   35.3960   43.7460 C   0  0  0  0  0  0  0  0  0  0  0  0
   45.9750   34.3530   43.5900 C   0  0  0  0  0  0  0  0  0  0  0  0
   46.2440   33.5480   44.6480 N   0  0  0  0  0  0  0  0  0  0  0  0
   45.6940   33.7250   45.8280 C   0  0  0  0  0  0  0  0  0  0  0  0
   44.8370   34.7160   46.0360 N   0  0  0  0  0  0  0  0  0  0  0  0
   46.0350   32.8070   46.9360 C   0  0  0  0  0  0  0  0  0  0  0  0
   45.1360   32.5830   47.9580 C   0  0  0  0  0  0  0  0  0  0  0  0
   45.4630   31.7250   48.9890 C   0  0  0  0  0  0  0  0  0  0  0  0
   46.6820   31.0820   49.0180 C   0  0  0  0  0  0  0  0  0  0  0  0
   47.5310   31.3490   47.9700 C   0  0  0  0  0  0  0  0  0  0  0  0
   47.2150   32.1810   46.9700 N   0  0  0  0  0  0  0  0  0  0  0  0
   48.6286   35.0803   40.4650 H   0  0  0  0  0  0  0  0  0  0  0  0
   50.9605   35.1197   42.0864 H   0  0  0  0  0  0  0  0  0  0  0  0
   50.1692   35.5216   43.3594 H   0  0  0  0  0  0  0  0  0  0  0  0
   48.8288   32.8390   42.8209 H   0  0  0  0  0  0  0  0  0  0  0  0
   48.5551   31.6609   40.5060 H   0  0  0  0  0  0  0  0  0  0  0  0
   49.0771   33.0732   39.5715 H   0  0  0  0  0  0  0  0  0  0  0  0
   49.9846   31.0155   38.5567 H   0  0  0  0  0  0  0  0  0  0  0  0
   51.3318   31.9910   39.2841 H   0  0  0  0  0  0  0  0  0  0  0  0
   50.2444   29.4574   40.0317 H   0  0  0  0  0  0  0  0  0  0  0  0
   49.7248   30.2303   42.0376 H   0  0  0  0  0  0  0  0  0  0  0  0
   51.4696   29.8373   42.2197 H   0  0  0  0  0  0  0  0  0  0  0  0
   52.0513   32.1982   41.6675 H   0  0  0  0  0  0  0  0  0  0  0  0
   50.9823   32.1087   43.1029 H   0  0  0  0  0  0  0  0  0  0  0  0
   47.6036   35.9547   42.8719 H   0  0  0  0  0  0  0  0  0  0  0  0
   47.0412   36.0069   41.1890 H   0  0  0  0  0  0  0  0  0  0  0  0
   45.8024   34.1116   41.4705 H   0  0  0  0  0  0  0  0  0  0  0  0
   47.1793   33.2413   42.2052 H   0  0  0  0  0  0  0  0  0  0  0  0
   43.8047   36.3892   45.1993 H   0  0  0  0  0  0  0  0  0  0  0  0
   44.8497   36.0691   42.9110 H   0  0  0  0  0  0  0  0  0  0  0  0
   44.1587   33.0879   47.9515 H   0  0  0  0  0  0  0  0  0  0  0  0
   44.7399   31.5519   49.7996 H   0  0  0  0  0  0  0  0  0  0  0  0
   46.9592   30.3957   49.8317 H   0  0  0  0  0  0  0  0  0  0  0  0
   48.5145   30.8566   47.9525 H   0  0  0  0  0  0  0  0  0  0  0  0
  1 10  1  0
  1  3  1  0
  1  2  1  0
  3  2  1  0
  4  9  1  0
  4  3  1  0
  5  4  1  0
  6  5  1  0
  6  7  1  0
  7  8  1  0
  8  9  1  0
 10 11  1  0
 11 14  1  0
 12 17  2  0
 13 12  1  0
 14 13  2  0
 14 15  1  0
 15 16  2  0
 16 17  1  0
 16 18  1  0
 18 23  1  0
 18 19  2  0
 19 20  1  0
 20 21  2  0
 22 21  1  0
 23 22  2  0
  1 24  1  6
  2 25  1  0
  2 26  1  0
  3 27  1  1
  5 28  1  0
  5 29  1  0
  6 30  1  0
  6 31  1  0
  7 32  1  0
  8 33  1  0
  8 34  1  0
  9 35  1  0
  9 36  1  0
 10 37  1  0
 10 38  1  0
 11 39  1  0
 11 40  1  0
 12 41  1  0
 13 42  1  0
 19 43  1  0
 20 44  1  0
 21 45  1  0
 22 46  1  0
M  ISO  8  24  13  25  13  26  13  27  13  28  13  29  13  30  13  31  13
M  ISO  8  32   5  33  13  34  13  35  13  36  13  37   8  38   8  39   8
M  ISO  7  40   8  41  14  42  14  43  14  44  14  45  14  46  14
M  END
>  <minimizedAffinity>  (1) 
-6.11181211

>  <minimizedRMSD>  (1) 
0.686033249

$$$$
