
     RDKit          3D

 47 50  0  0  1  0  0  0  0  0999 V2000
   47.7530   35.4440   41.8530 C   0  0  0  0  0  0  0  0  0  0  0  0
   49.0440   34.7790   41.5010 C   0  0  1  0  0  0  0  0  0  0  0  0
   50.1150   34.7410   42.5480 C   0  0  0  0  0  0  0  0  0  0  0  0
   49.3590   33.5140   42.1590 C   0  0  2  0  0  0  0  0  0  0  0  0
   50.1370   32.6100   41.3260 N   0  0  0  0  0  0  0  0  0  0  0  0
   49.4680   32.1630   40.1640 C   0  0  0  0  0  0  0  0  0  0  0  0
   50.4280   31.2230   39.4610 C   0  0  0  0  0  0  0  0  0  0  0  0
   50.7550   30.0930   40.2530 N   0  0  0  0  0  0  0  0  0  0  0  0
   50.6440   30.3090   41.6840 C   0  0  0  0  0  0  0  0  0  0  0  0
   51.0180   31.7570   42.0020 C   0  0  0  0  0  0  0  0  0  0  0  0
   46.7270   34.3490   41.9990 C   0  0  0  0  0  0  0  0  0  0  0  0
   44.5850   35.6380   44.7970 C   0  0  0  0  0  0  0  0  0  0  0  0
   45.1890   35.5120   43.5200 C   0  0  0  0  0  0  0  0  0  0  0  0
   46.0770   34.4920   43.3390 C   0  0  0  0  0  0  0  0  0  0  0  0
   46.3550   33.6380   44.3710 N   0  0  0  0  0  0  0  0  0  0  0  0
   45.7900   33.7660   45.5480 C   0  0  0  0  0  0  0  0  0  0  0  0
   44.9090   34.7520   45.7780 N   0  0  0  0  0  0  0  0  0  0  0  0
   44.2870   33.6970   47.8640 F   0  0  0  0  0  0  0  0  0  0  0  0
   45.3400   32.8180   47.8010 C   0  0  0  0  0  0  0  0  0  0  0  0
   46.0930   32.8500   46.6430 C   0  0  0  0  0  0  0  0  0  0  0  0
   47.1470   31.9620   46.5920 C   0  0  0  0  0  0  0  0  0  0  0  0
   47.3980   31.1070   47.6600 C   0  0  0  0  0  0  0  0  0  0  0  0
   46.6080   31.1100   48.8110 C   0  0  0  0  0  0  0  0  0  0  0  0
   45.5650   31.9900   48.8620 C   0  0  0  0  0  0  0  0  0  0  0  0
   47.4545   36.1391   41.0544 H   0  0  0  0  0  0  0  0  0  0  0  0
   47.8475   36.0241   42.7828 H   0  0  0  0  0  0  0  0  0  0  0  0
   48.9937   35.1162   40.4552 H   0  0  0  0  0  0  0  0  0  0  0  0
   51.1717   34.8542   42.2643 H   0  0  0  0  0  0  0  0  0  0  0  0
   50.3162   35.2764   43.4876 H   0  0  0  0  0  0  0  0  0  0  0  0
   48.7730   32.7567   42.7004 H   0  0  0  0  0  0  0  0  0  0  0  0
   48.5441   31.6317   40.4361 H   0  0  0  0  0  0  0  0  0  0  0  0
   49.1829   33.0047   39.5157 H   0  0  0  0  0  0  0  0  0  0  0  0
   49.9626   30.8767   38.5264 H   0  0  0  0  0  0  0  0  0  0  0  0
   51.3582   31.7771   39.2667 H   0  0  0  0  0  0  0  0  0  0  0  0
   50.1210   29.3238   39.9935 H   0  0  0  0  0  0  0  0  0  0  0  0
   49.6101   30.1163   42.0065 H   0  0  0  0  0  0  0  0  0  0  0  0
   51.3226   29.6257   42.2156 H   0  0  0  0  0  0  0  0  0  0  0  0
   52.0488   31.9535   41.6721 H   0  0  0  0  0  0  0  0  0  0  0  0
   50.9487   31.9313   43.0859 H   0  0  0  0  0  0  0  0  0  0  0  0
   45.9698   34.4403   41.2063 H   0  0  0  0  0  0  0  0  0  0  0  0
   47.2086   33.3637   41.9139 H   0  0  0  0  0  0  0  0  0  0  0  0
   43.8620   36.4436   44.9926 H   0  0  0  0  0  0  0  0  0  0  0  0
   44.9502   36.2112   42.7051 H   0  0  0  0  0  0  0  0  0  0  0  0
   47.7926   31.9297   45.7020 H   0  0  0  0  0  0  0  0  0  0  0  0
   48.2444   30.4074   47.5958 H   0  0  0  0  0  0  0  0  0  0  0  0
   46.8183   30.4274   49.6476 H   0  0  0  0  0  0  0  0  0  0  0  0
   44.9140   32.0309   49.7478 H   0  0  0  0  0  0  0  0  0  0  0  0
  1 11  1  0
  2  1  1  0
  2  4  1  0
  2  3  1  0
  4  3  1  0
  5 10  1  0
  5  4  1  0
  6  5  1  0
  7  6  1  0
  7  8  1  0
  8  9  1  0
  9 10  1  0
 11 14  1  0
 12 17  2  0
 13 12  1  0
 14 13  2  0
 14 15  1  0
 15 16  2  0
 16 17  1  0
 16 20  1  0
 19 18  1  0
 19 24  2  0
 20 19  1  0
 21 20  2  0
 21 22  1  0
 22 23  2  0
 23 24  1  0
  1 25  1  0
  1 26  1  0
  2 27  1  6
  3 28  1  0
  3 29  1  0
  4 30  1  1
  6 31  1  0
  6 32  1  0
  7 33  1  0
  7 34  1  0
  8 35  1  0
  9 36  1  0
  9 37  1  0
 10 38  1  0
 10 39  1  0
 11 40  1  0
 11 41  1  0
 12 42  1  0
 13 43  1  0
 21 44  1  0
 22 45  1  0
 23 46  1  0
 24 47  1  0
M  ISO  8  25   8  26   8  27  13  28  13  29  13  30  13  31  13  32  13
M  ISO  8  33  13  34  13  35   5  36  13  37  13  38  13  39  13  40   8
M  ISO  7  41   8  42  14  43  14  44  14  45  14  46  14  47  14
M  END
>  <minimizedAffinity>  (1) 
-6.27976942

>  <minimizedRMSD>  (1) 
0.424839735

$$$$
