
     RDKit          3D

 26 27  0  0  0  0  0  0  0  0999 V2000
   44.6120   36.1950   43.9790 C   0  0  0  0  0  0  0  0  0  0  0  0
   44.8180   35.3850   45.1050 C   0  0  0  0  0  0  0  0  0  0  0  0
   45.5360   34.2010   44.9330 C   0  0  0  0  0  0  0  0  0  0  0  0
   45.9950   33.8960   43.6970 N   0  0  0  0  0  0  0  0  0  0  0  0
   45.7770   34.7060   42.6210 C   0  0  0  0  0  0  0  0  0  0  0  0
   45.0890   35.8480   42.7660 N   0  0  0  0  0  0  0  0  0  0  0  0
   48.5270   35.6910   42.0060 Cl  0  0  0  0  0  0  0  0  0  0  0  0
   47.5560   34.7110   40.9330 C   0  0  0  0  0  0  0  0  0  0  0  0
   46.3050   34.3100   41.3090 C   0  0  0  0  0  0  0  0  0  0  0  0
   45.5060   33.5250   40.4720 C   0  0  0  0  0  0  0  0  0  0  0  0
   46.0560   33.1840   39.2560 C   0  0  0  0  0  0  0  0  0  0  0  0
   47.3040   33.5840   38.8810 C   0  0  0  0  0  0  0  0  0  0  0  0
   48.0740   34.3510   39.7090 C   0  0  0  0  0  0  0  0  0  0  0  0
   45.7610   33.3400   46.1150 C   0  0  0  0  0  0  0  0  0  0  0  0
   46.8930   32.3590   45.9310 C   0  0  0  0  0  0  0  0  0  0  0  0
   44.0491   37.1338   44.0873 H   0  0  0  0  0  0  0  0  0  0  0  0
   44.4264   35.6736   46.0916 H   0  0  0  0  0  0  0  0  0  0  0  0
   44.4977   33.1990   40.7672 H   0  0  0  0  0  0  0  0  0  0  0  0
   45.4666   32.5664   38.5623 H   0  0  0  0  0  0  0  0  0  0  0  0
   47.6967   33.2851   37.8979 H   0  0  0  0  0  0  0  0  0  0  0  0
   49.0813   34.6725   39.4058 H   0  0  0  0  0  0  0  0  0  0  0  0
   45.9928   33.9832   46.9767 H   0  0  0  0  0  0  0  0  0  0  0  0
   44.8434   32.7538   46.2710 H   0  0  0  0  0  0  0  0  0  0  0  0
   47.2636   32.0379   46.9157 H   0  0  0  0  0  0  0  0  0  0  0  0
   46.5321   31.4833   45.3716 H   0  0  0  0  0  0  0  0  0  0  0  0
   47.7085   32.8408   45.3716 H   0  0  0  0  0  0  0  0  0  0  0  0
  1  2  2  0
  3  2  1  0
  3 14  1  0
  4  3  2  0
  5  6  2  0
  5  4  1  0
  6  1  1  0
  8  9  2  0
  8  7  1  0
  9  5  1  0
 10  9  1  0
 11 10  2  0
 12 11  1  0
 12 13  2  0
 13  8  1  0
 15 14  1  0
  1 16  1  0
  2 17  1  0
 10 18  1  0
 11 19  1  0
 12 20  1  0
 13 21  1  0
 14 22  1  0
 14 23  1  0
 15 24  1  0
 15 25  1  0
 15 26  1  0
M  ISO  8  16  14  17  14  18  14  19  14  20  14  21  14  22   8  23   8
M  ISO  3  24   8  25   8  26   8
M  END
>  <minimizedAffinity>  (1) 
-4.80622578

>  <minimizedRMSD>  (1) 
3.0876677

$$$$
