
     RDKit          3D

 39 41  0  0  1  0  0  0  0  0999 V2000
   48.8700   34.7070   41.5070 C   0  0  1  0  0  0  0  0  0  0  0  0
   50.0000   34.9100   42.4770 C   0  0  0  0  0  0  0  0  0  0  0  0
   49.3460   33.5790   42.2940 C   0  0  2  0  0  0  0  0  0  0  0  0
   50.1700   32.6470   41.5360 N   0  0  0  0  0  0  0  0  0  0  0  0
   49.5800   32.2130   40.3210 C   0  0  0  0  0  0  0  0  0  0  0  0
   50.5870   31.2650   39.6960 C   0  0  0  0  0  0  0  0  0  0  0  0
   50.8190   30.1210   40.5040 N   0  0  0  0  0  0  0  0  0  0  0  0
   50.5840   30.3340   41.9220 C   0  0  0  0  0  0  0  0  0  0  0  0
   50.9680   31.7700   42.2810 C   0  0  0  0  0  0  0  0  0  0  0  0
   47.5490   35.2950   41.8820 C   0  0  0  0  0  0  0  0  0  0  0  0
   46.6660   34.1460   42.2800 C   0  0  0  0  0  0  0  0  0  0  0  0
   44.4910   36.0460   44.6810 C   0  0  0  0  0  0  0  0  0  0  0  0
   45.1890   35.6920   43.4880 C   0  0  0  0  0  0  0  0  0  0  0  0
   45.9160   34.5380   43.5170 C   0  0  0  0  0  0  0  0  0  0  0  0
   45.9520   33.7870   44.6500 N   0  0  0  0  0  0  0  0  0  0  0  0
   45.3070   34.1210   45.7430 C   0  0  0  0  0  0  0  0  0  0  0  0
   44.5730   35.2500   45.7680 N   0  0  0  0  0  0  0  0  0  0  0  0
   45.3170   33.3630   46.9520 N   0  0  0  0  0  0  0  0  0  0  0  0
   48.7245   34.8912   40.4323 H   0  0  0  0  0  0  0  0  0  0  0  0
   51.0227   35.0812   42.1100 H   0  0  0  0  0  0  0  0  0  0  0  0
   50.2001   35.5805   43.3257 H   0  0  0  0  0  0  0  0  0  0  0  0
   48.8649   32.8491   42.9617 H   0  0  0  0  0  0  0  0  0  0  0  0
   48.6323   31.6909   40.5190 H   0  0  0  0  0  0  0  0  0  0  0  0
   49.3481   33.0578   39.6558 H   0  0  0  0  0  0  0  0  0  0  0  0
   50.2050   30.9366   38.7181 H   0  0  0  0  0  0  0  0  0  0  0  0
   51.5400   31.8045   39.5925 H   0  0  0  0  0  0  0  0  0  0  0  0
   50.1948   29.3672   40.1831 H   0  0  0  0  0  0  0  0  0  0  0  0
   49.5202   30.1694   42.1482 H   0  0  0  0  0  0  0  0  0  0  0  0
   51.1915   29.6294   42.5090 H   0  0  0  0  0  0  0  0  0  0  0  0
   52.0281   31.9405   42.0422 H   0  0  0  0  0  0  0  0  0  0  0  0
   50.8120   31.9424   43.3561 H   0  0  0  0  0  0  0  0  0  0  0  0
   47.6689   35.9914   42.7250 H   0  0  0  0  0  0  0  0  0  0  0  0
   47.1132   35.8590   41.0441 H   0  0  0  0  0  0  0  0  0  0  0  0
   45.9566   33.9234   41.4693 H   0  0  0  0  0  0  0  0  0  0  0  0
   47.2732   33.2491   42.4721 H   0  0  0  0  0  0  0  0  0  0  0  0
   43.8877   36.9652   44.7148 H   0  0  0  0  0  0  0  0  0  0  0  0
   45.1430   36.3206   42.5865 H   0  0  0  0  0  0  0  0  0  0  0  0
   44.7841   33.6912   47.7700 H   0  0  0  0  0  0  0  0  0  0  0  0
   45.8571   32.4877   47.0066 H   0  0  0  0  0  0  0  0  0  0  0  0
  1 10  1  0
  1  3  1  0
  1  2  1  0
  3  2  1  0
  4  9  1  0
  4  3  1  0
  5  4  1  0
  6  5  1  0
  6  7  1  0
  7  8  1  0
  8  9  1  0
 10 11  1  0
 11 14  1  0
 12 17  2  0
 13 14  2  0
 13 12  1  0
 14 15  1  0
 15 16  2  0
 16 17  1  0
 16 18  1  0
  1 19  1  6
  2 20  1  0
  2 21  1  0
  3 22  1  1
  5 23  1  0
  5 24  1  0
  6 25  1  0
  6 26  1  0
  7 27  1  0
  8 28  1  0
  8 29  1  0
  9 30  1  0
  9 31  1  0
 10 32  1  0
 10 33  1  0
 11 34  1  0
 11 35  1  0
 12 36  1  0
 13 37  1  0
 18 38  1  0
 18 39  1  0
M  ISO  8  19  13  20  13  21  13  22  13  23  13  24  13  25  13  26  13
M  ISO  8  27   5  28  13  29  13  30  13  31  13  32   8  33   8  34   8
M  ISO  3  35   8  36  14  37  14
M  END
>  <minimizedAffinity>  (1) 
-5.15942812

>  <minimizedRMSD>  (1) 
0.195706829

$$$$
