
     RDKit          3D

 39 42  0  0  0  0  0  0  0  0999 V2000
   44.6350   36.1430   43.9990 C   0  0  0  0  0  0  0  0  0  0  0  0
   44.8590   35.3400   45.1160 C   0  0  0  0  0  0  0  0  0  0  0  0
   45.5880   34.1710   44.9310 C   0  0  0  0  0  0  0  0  0  0  0  0
   46.0400   33.8800   43.6800 N   0  0  0  0  0  0  0  0  0  0  0  0
   45.7970   34.6980   42.6100 C   0  0  0  0  0  0  0  0  0  0  0  0
   45.0970   35.8250   42.7690 N   0  0  0  0  0  0  0  0  0  0  0  0
   48.5360   35.6990   41.9910 Cl  0  0  0  0  0  0  0  0  0  0  0  0
   47.5690   34.7190   40.9150 C   0  0  0  0  0  0  0  0  0  0  0  0
   46.3220   34.3080   41.2920 C   0  0  0  0  0  0  0  0  0  0  0  0
   45.5230   33.5250   40.4590 C   0  0  0  0  0  0  0  0  0  0  0  0
   46.0710   33.1930   39.2350 C   0  0  0  0  0  0  0  0  0  0  0  0
   47.3170   33.6050   38.8630 C   0  0  0  0  0  0  0  0  0  0  0  0
   48.0890   34.3700   39.6860 C   0  0  0  0  0  0  0  0  0  0  0  0
   45.8380   33.3010   46.1040 C   0  0  0  0  0  0  0  0  0  0  0  0
   46.1300   31.8620   45.7230 C   0  0  0  0  0  0  0  0  0  0  0  0
   47.6370   30.0130   46.2630 C   0  0  0  0  0  0  0  0  0  0  0  0
   47.0730   31.2280   46.6720 C   0  0  0  0  0  0  0  0  0  0  0  0
   47.4350   31.7280   47.9010 C   0  0  0  0  0  0  0  0  0  0  0  0
   48.3250   31.0140   48.6630 C   0  0  0  0  0  0  0  0  0  0  0  0
   48.8560   31.2470   49.8840 N   0  0  0  0  0  0  0  0  0  0  0  0
   49.6860   30.2750   50.2350 N   0  0  0  0  0  0  0  0  0  0  0  0
   49.7430   29.3430   49.2500 C   0  0  0  0  0  0  0  0  0  0  0  0
   48.8870   29.8240   48.2820 C   0  0  0  0  0  0  0  0  0  0  0  0
   48.5280   29.3160   47.0460 C   0  0  0  0  0  0  0  0  0  0  0  0
   44.0595   37.0722   44.1232 H   0  0  0  0  0  0  0  0  0  0  0  0
   44.4732   35.6209   46.1071 H   0  0  0  0  0  0  0  0  0  0  0  0
   44.5182   33.1922   40.7582 H   0  0  0  0  0  0  0  0  0  0  0  0
   45.4838   32.5768   38.5382 H   0  0  0  0  0  0  0  0  0  0  0  0
   47.7076   33.3135   37.8769 H   0  0  0  0  0  0  0  0  0  0  0  0
   49.0934   34.6981   39.3801 H   0  0  0  0  0  0  0  0  0  0  0  0
   46.7009   33.6990   46.6580 H   0  0  0  0  0  0  0  0  0  0  0  0
   44.9229   33.3006   46.7144 H   0  0  0  0  0  0  0  0  0  0  0  0
   45.1878   31.2944   45.7231 H   0  0  0  0  0  0  0  0  0  0  0  0
   46.5913   31.8571   44.7244 H   0  0  0  0  0  0  0  0  0  0  0  0
   47.3579   29.6018   45.2817 H   0  0  0  0  0  0  0  0  0  0  0  0
   47.0201   32.6795   48.2651 H   0  0  0  0  0  0  0  0  0  0  0  0
   48.6438   32.0708   50.4647 H   0  0  0  0  0  0  0  0  0  0  0  0
   50.3359   28.4167   49.2288 H   0  0  0  0  0  0  0  0  0  0  0  0
   48.9510   28.3640   46.6928 H   0  0  0  0  0  0  0  0  0  0  0  0
  1  2  2  0
  3  2  1  0
  3 14  1  0
  4  3  2  0
  5  6  2  0
  5  4  1  0
  6  1  1  0
  8  9  2  0
  8  7  1  0
  9  5  1  0
 10  9  1  0
 11 10  2  0
 12 11  1  0
 12 13  2  0
 13  8  1  0
 15 14  1  0
 15 17  1  0
 16 17  2  0
 16 24  1  0
 17 18  1  0
 18 19  2  0
 19 20  1  0
 20 21  1  0
 22 21  2  0
 23 19  1  0
 23 22  1  0
 24 23  2  0
  1 25  1  0
  2 26  1  0
 10 27  1  0
 11 28  1  0
 12 29  1  0
 13 30  1  0
 14 31  1  0
 14 32  1  0
 15 33  1  0
 15 34  1  0
 16 35  1  0
 18 36  1  0
 20 37  1  0
 22 38  1  0
 24 39  1  0
M  ISO  8  25  14  26  14  27  14  28  14  29  14  30  14  31   8  32   8
M  ISO  7  33   8  34   8  35  14  36  14  37   9  38  14  39  14
M  END
>  <minimizedAffinity>  (1) 
-6.53035879

>  <minimizedRMSD>  (1) 
1.26617777

$$$$
