
     RDKit          3D

 40 42  0  0  0  0  0  0  0  0999 V2000
   44.5960   36.4850   43.7440 C   0  0  0  0  0  0  0  0  0  0  0  0
   44.7180   35.7320   44.9120 C   0  0  0  0  0  0  0  0  0  0  0  0
   45.3740   34.4960   44.8300 C   0  0  0  0  0  0  0  0  0  0  0  0
   45.8390   34.1300   43.6240 N   0  0  0  0  0  0  0  0  0  0  0  0
   45.7160   34.8670   42.4950 C   0  0  0  0  0  0  0  0  0  0  0  0
   45.0860   36.0560   42.5650 N   0  0  0  0  0  0  0  0  0  0  0  0
   48.5210   35.6970   41.9220 Cl  0  0  0  0  0  0  0  0  0  0  0  0
   47.5380   34.6970   40.8700 C   0  0  0  0  0  0  0  0  0  0  0  0
   46.2590   34.3740   41.2320 C   0  0  0  0  0  0  0  0  0  0  0  0
   45.4470   33.5760   40.4150 C   0  0  0  0  0  0  0  0  0  0  0  0
   46.0020   33.1410   39.2450 C   0  0  0  0  0  0  0  0  0  0  0  0
   47.2810   33.4610   38.8800 C   0  0  0  0  0  0  0  0  0  0  0  0
   48.0570   34.2350   39.6810 C   0  0  0  0  0  0  0  0  0  0  0  0
   45.5080   33.6970   46.0610 C   0  0  0  0  0  0  0  0  0  0  0  0
   46.1010   32.3340   45.8150 C   0  0  0  0  0  0  0  0  0  0  0  0
   46.3010   31.5500   46.9810 N   0  0  0  0  0  0  0  0  0  0  0  0
   47.6000   30.9370   47.0620 C   0  0  0  0  0  0  0  0  0  0  0  0
   47.8510   30.1750   48.3070 C   0  0  0  0  0  0  0  0  0  0  0  0
   47.3010   30.7700   49.4990 N   0  0  0  0  0  0  0  0  0  0  0  0
   45.8850   30.9600   49.2630 C   0  0  0  0  0  0  0  0  0  0  0  0
   45.7950   32.0660   48.2040 C   0  0  0  0  0  0  0  0  0  0  0  0
   44.0845   37.4579   43.7872 H   0  0  0  0  0  0  0  0  0  0  0  0
   44.3122   36.0967   45.8672 H   0  0  0  0  0  0  0  0  0  0  0  0
   44.4176   33.3138   40.7006 H   0  0  0  0  0  0  0  0  0  0  0  0
   45.3997   32.5117   38.5732 H   0  0  0  0  0  0  0  0  0  0  0  0
   47.6848   33.0872   37.9275 H   0  0  0  0  0  0  0  0  0  0  0  0
   49.0853   34.4894   39.3847 H   0  0  0  0  0  0  0  0  0  0  0  0
   46.1574   34.2406   46.7630 H   0  0  0  0  0  0  0  0  0  0  0  0
   44.4973   33.5480   46.4689 H   0  0  0  0  0  0  0  0  0  0  0  0
   45.4248   31.7831   45.1447 H   0  0  0  0  0  0  0  0  0  0  0  0
   47.0982   32.5048   45.3833 H   0  0  0  0  0  0  0  0  0  0  0  0
   47.7066   30.2476   46.2115 H   0  0  0  0  0  0  0  0  0  0  0  0
   48.3313   31.7586   47.0492 H   0  0  0  0  0  0  0  0  0  0  0  0
   47.4116   29.1734   48.1900 H   0  0  0  0  0  0  0  0  0  0  0  0
   48.9422   30.1558   48.4446 H   0  0  0  0  0  0  0  0  0  0  0  0
   47.4445   30.1449   50.3049 H   0  0  0  0  0  0  0  0  0  0  0  0
   45.4288   30.0313   48.8897 H   0  0  0  0  0  0  0  0  0  0  0  0
   45.3487   31.2305   50.1845 H   0  0  0  0  0  0  0  0  0  0  0  0
   46.3942   32.9330   48.5189 H   0  0  0  0  0  0  0  0  0  0  0  0
   44.7508   32.3882   48.0780 H   0  0  0  0  0  0  0  0  0  0  0  0
  1  2  2  0
  3  2  1  0
  3 14  1  0
  4  3  2  0
  5  6  2  0
  5  4  1  0
  6  1  1  0
  8  9  2  0
  8  7  1  0
  9  5  1  0
 10  9  1  0
 11 10  2  0
 12 11  1  0
 12 13  2  0
 13  8  1  0
 15 14  1  0
 15 16  1  0
 16 17  1  0
 16 21  1  0
 17 18  1  0
 18 19  1  0
 20 19  1  0
 21 20  1  0
  1 22  1  0
  2 23  1  0
 10 24  1  0
 11 25  1  0
 12 26  1  0
 13 27  1  0
 14 28  1  0
 14 29  1  0
 15 30  1  0
 15 31  1  0
 17 32  1  0
 17 33  1  0
 18 34  1  0
 18 35  1  0
 19 36  1  0
 20 37  1  0
 20 38  1  0
 21 39  1  0
 21 40  1  0
M  ISO  8  22  14  23  14  24  14  25  14  26  14  27  14  28   8  29   8
M  ISO  8  30   8  31   8  32  13  33  13  34  13  35  13  36   5  37  13
M  ISO  3  38  13  39  13  40  13
M  END
>  <minimizedAffinity>  (1) 
-5.91855812

>  <minimizedRMSD>  (1) 
2.6241641

$$$$
