
     RDKit          3D

 39 41  0  0  0  0  0  0  0  0999 V2000
   46.1620   29.8470   44.4150 Br  0  0  0  0  0  0  0  0  0  0  0  0
   45.8200   30.5870   46.1670 C   0  0  0  0  0  0  0  0  0  0  0  0
   46.3000   31.8690   46.3750 C   0  0  0  0  0  0  0  0  0  0  0  0
   46.0390   32.3790   47.6510 C   0  0  0  0  0  0  0  0  0  0  0  0
   45.3660   31.6830   48.6310 C   0  0  0  0  0  0  0  0  0  0  0  0
   44.9260   30.4260   48.3420 C   0  0  0  0  0  0  0  0  0  0  0  0
   45.1380   29.8450   47.1140 C   0  0  0  0  0  0  0  0  0  0  0  0
   44.7030   28.4950   46.7060 C   0  0  0  0  0  0  0  0  0  0  0  0
   43.3100   28.5110   46.1030 C   0  0  0  0  0  0  0  0  0  0  0  0
   43.1190   27.1200   45.4930 C   0  0  0  0  0  0  0  0  0  0  0  0
   43.0850   26.1440   46.6420 C   0  0  0  0  0  0  0  0  0  0  0  0
   44.3830   26.1460   47.4290 C   0  0  0  0  0  0  0  0  0  0  0  0
   44.7500   27.5480   47.8730 C   0  0  0  0  0  0  0  0  0  0  0  0
   47.0290   32.7080   45.4160 C   0  0  0  0  0  0  0  0  0  0  0  0
   44.5320   35.4580   45.0450 C   0  0  0  0  0  0  0  0  0  0  0  0
   44.7750   35.9040   43.7380 C   0  0  0  0  0  0  0  0  0  0  0  0
   45.7830   35.2540   43.0250 C   0  0  0  0  0  0  0  0  0  0  0  0
   46.4830   34.2310   43.6030 N   0  0  0  0  0  0  0  0  0  0  0  0
   46.2060   33.8320   44.8850 C   0  0  0  0  0  0  0  0  0  0  0  0
   45.2290   34.4660   45.5690 N   0  0  0  0  0  0  0  0  0  0  0  0
   46.3914   33.3943   47.8855 H   0  0  0  0  0  0  0  0  0  0  0  0
   45.1885   32.1299   49.6203 H   0  0  0  0  0  0  0  0  0  0  0  0
   44.3851   29.8593   49.1142 H   0  0  0  0  0  0  0  0  0  0  0  0
   45.4020   28.1459   45.9317 H   0  0  0  0  0  0  0  0  0  0  0  0
   42.5552   28.6976   46.8811 H   0  0  0  0  0  0  0  0  0  0  0  0
   43.1966   29.3074   45.3527 H   0  0  0  0  0  0  0  0  0  0  0  0
   42.1736   27.0785   44.9322 H   0  0  0  0  0  0  0  0  0  0  0  0
   43.9331   26.8795   44.7935 H   0  0  0  0  0  0  0  0  0  0  0  0
   42.2604   26.4182   47.3165 H   0  0  0  0  0  0  0  0  0  0  0  0
   42.9412   25.1356   46.2268 H   0  0  0  0  0  0  0  0  0  0  0  0
   44.2658   25.5072   48.3168 H   0  0  0  0  0  0  0  0  0  0  0  0
   45.1852   25.7637   46.7806 H   0  0  0  0  0  0  0  0  0  0  0  0
   45.7664   27.5409   48.2936 H   0  0  0  0  0  0  0  0  0  0  0  0
   44.0292   27.8822   48.6338 H   0  0  0  0  0  0  0  0  0  0  0  0
   47.9134   33.1273   45.9180 H   0  0  0  0  0  0  0  0  0  0  0  0
   47.3058   32.0703   44.5635 H   0  0  0  0  0  0  0  0  0  0  0  0
   43.7472   35.9427   45.6443 H   0  0  0  0  0  0  0  0  0  0  0  0
   44.1973   36.7287   43.2950 H   0  0  0  0  0  0  0  0  0  0  0  0
   46.0152   35.5650   41.9958 H   0  0  0  0  0  0  0  0  0  0  0  0
  1  2  1  0
  2  3  2  0
  2  7  1  0
  3  4  1  0
  4  5  2  0
  6  5  1  0
  7  6  2  0
  8  7  1  0
  8 13  1  0
  9  8  1  0
 10  9  1  0
 10 11  1  0
 11 12  1  0
 12 13  1  0
 14  3  1  0
 15 20  2  0
 16 15  1  0
 17 18  1  0
 17 16  2  0
 18 19  2  0
 19 14  1  0
 19 20  1  0
  4 21  1  0
  5 22  1  0
  6 23  1  0
  8 24  1  0
  9 25  1  0
  9 26  1  0
 10 27  1  0
 10 28  1  0
 11 29  1  0
 11 30  1  0
 12 31  1  0
 12 32  1  0
 13 33  1  0
 13 34  1  0
 14 35  1  0
 14 36  1  0
 15 37  1  0
 16 38  1  0
 17 39  1  0
M  ISO  8  21  14  22  14  23  14  24  13  25  13  26  13  27  13  28  13
M  ISO  8  29  13  30  13  31  13  32  13  33  13  34  13  35   8  36   8
M  ISO  3  37  14  38  14  39  14
M  END
>  <minimizedAffinity>  (1) 
-5.41368914

>  <minimizedRMSD>  (1) 
1.20375407

$$$$
