
     RDKit          3D

 31 32  0  0  0  0  0  0  0  0999 V2000
   45.6810   29.8050   44.9280 Br  0  0  0  0  0  0  0  0  0  0  0  0
   45.6990   30.5950   46.6750 C   0  0  0  0  0  0  0  0  0  0  0  0
   46.3310   31.7990   46.8050 C   0  0  0  0  0  0  0  0  0  0  0  0
   46.3250   32.3490   48.0990 C   0  0  0  0  0  0  0  0  0  0  0  0
   45.7280   31.7340   49.1750 C   0  0  0  0  0  0  0  0  0  0  0  0
   45.1140   30.5340   48.9740 C   0  0  0  0  0  0  0  0  0  0  0  0
   45.0900   29.9480   47.7300 C   0  0  0  0  0  0  0  0  0  0  0  0
   47.0050   32.5540   45.7320 C   0  0  0  0  0  0  0  0  0  0  0  0
   44.5330   35.3330   45.3880 C   0  0  0  0  0  0  0  0  0  0  0  0
   44.7610   35.7500   44.0710 C   0  0  0  0  0  0  0  0  0  0  0  0
   45.7440   35.0770   43.3400 C   0  0  0  0  0  0  0  0  0  0  0  0
   46.4330   34.0670   43.9110 N   0  0  0  0  0  0  0  0  0  0  0  0
   46.1870   33.6810   45.2050 C   0  0  0  0  0  0  0  0  0  0  0  0
   45.2360   34.3310   45.9130 N   0  0  0  0  0  0  0  0  0  0  0  0
   44.4720   28.7210   47.4850 N   0  0  0  0  0  0  0  0  0  0  0  0
   44.8090   27.1480   48.0390 S   0  0  0  0  0  0  0  0  0  0  0  0
   46.1610   26.6380   47.7130 O   0  0  0  0  0  0  0  0  0  0  0  0
   43.8240   26.1360   47.4670 O   0  0  0  0  0  0  0  0  0  0  0  0
   44.5190   27.1240   49.7090 O   0  0  0  0  0  0  0  0  0  0  0  0
   46.8215   33.3175   48.2586 H   0  0  0  0  0  0  0  0  0  0  0  0
   45.7457   32.1988   50.1718 H   0  0  0  0  0  0  0  0  0  0  0  0
   44.6296   30.0257   49.8208 H   0  0  0  0  0  0  0  0  0  0  0  0
   47.9465   32.9612   46.1293 H   0  0  0  0  0  0  0  0  0  0  0  0
   47.1756   31.8563   44.8989 H   0  0  0  0  0  0  0  0  0  0  0  0
   43.7664   35.8375   45.9945 H   0  0  0  0  0  0  0  0  0  0  0  0
   44.1873   36.5773   43.6277 H   0  0  0  0  0  0  0  0  0  0  0  0
   45.9556   35.3701   42.3011 H   0  0  0  0  0  0  0  0  0  0  0  0
   43.6619   28.7782   46.8515 H   0  0  0  0  0  0  0  0  0  0  0  0
   46.6544   26.4519   48.5509 H   0  0  0  0  0  0  0  0  0  0  0  0
   43.3663   25.6657   48.2082 H   0  0  0  0  0  0  0  0  0  0  0  0
   45.3789   27.1952   50.1943 H   0  0  0  0  0  0  0  0  0  0  0  0
  1  2  1  0
  2  3  2  0
  2  7  1  0
  3  4  1  0
  4  5  2  0
  6  5  1  0
  7  6  2  0
  8  3  1  0
  9 14  2  0
 10  9  1  0
 11 12  1  0
 11 10  2  0
 12 13  2  0
 13  8  1  0
 13 14  1  0
 15  7  1  0
 15 16  1  0
 16 19  1  0
 17 16  1  0
 18 16  1  0
  4 20  1  0
  5 21  1  0
  6 22  1  0
  8 23  1  0
  8 24  1  0
  9 25  1  0
 10 26  1  0
 11 27  1  0
 15 28  1  0
 17 29  1  0
 18 30  1  0
 19 31  1  0
M  ISO  8  20  14  21  14  22  14  23   8  24   8  25  14  26  14  27  14
M  ISO  3  29   3  30   3  31   3
M  END
>  <minimizedAffinity>  (1) 
-5.10422277

>  <minimizedRMSD>  (1) 
0.748793483

$$$$
