
     RDKit          3D

 38 40  0  0  0  0  0  0  0  0999 V2000
   46.3960   29.8280   44.4260 Br  0  0  0  0  0  0  0  0  0  0  0  0
   45.8930   30.5880   46.1270 C   0  0  0  0  0  0  0  0  0  0  0  0
   46.2770   31.8930   46.3400 C   0  0  0  0  0  0  0  0  0  0  0  0
   45.8880   32.4010   47.5920 C   0  0  0  0  0  0  0  0  0  0  0  0
   45.1920   31.6730   48.5210 C   0  0  0  0  0  0  0  0  0  0  0  0
   44.8420   30.3700   48.2330 C   0  0  0  0  0  0  0  0  0  0  0  0
   45.1890   29.8020   47.0260 C   0  0  0  0  0  0  0  0  0  0  0  0
   44.8460   28.4590   46.6890 N   0  0  0  0  0  0  0  0  0  0  0  0
   43.8250   27.9340   45.8000 C   0  0  0  0  0  0  0  0  0  0  0  0
   43.0250   26.9020   46.5380 C   0  0  0  0  0  0  0  0  0  0  0  0
   43.8660   25.7960   47.1320 C   0  0  0  0  0  0  0  0  0  0  0  0
   45.3460   26.0760   46.9940 C   0  0  0  0  0  0  0  0  0  0  0  0
   45.6910   27.4940   47.3770 C   0  0  0  0  0  0  0  0  0  0  0  0
   47.0200   32.7520   45.4190 C   0  0  0  0  0  0  0  0  0  0  0  0
   44.5150   35.4850   45.0060 C   0  0  0  0  0  0  0  0  0  0  0  0
   44.7800   35.9090   43.6920 C   0  0  0  0  0  0  0  0  0  0  0  0
   45.7830   35.2710   42.9900 C   0  0  0  0  0  0  0  0  0  0  0  0
   46.4720   34.2590   43.5990 N   0  0  0  0  0  0  0  0  0  0  0  0
   46.1990   33.8630   44.8740 C   0  0  0  0  0  0  0  0  0  0  0  0
   45.2140   34.4970   45.5470 N   0  0  0  0  0  0  0  0  0  0  0  0
   46.1569   33.4386   47.8390 H   0  0  0  0  0  0  0  0  0  0  0  0
   44.9153   32.1226   49.4860 H   0  0  0  0  0  0  0  0  0  0  0  0
   44.2814   29.7795   48.9727 H   0  0  0  0  0  0  0  0  0  0  0  0
   44.3009   27.4740   44.9214 H   0  0  0  0  0  0  0  0  0  0  0  0
   43.1659   28.7488   45.4657 H   0  0  0  0  0  0  0  0  0  0  0  0
   42.4809   27.4013   47.3533 H   0  0  0  0  0  0  0  0  0  0  0  0
   42.3478   26.4355   45.8074 H   0  0  0  0  0  0  0  0  0  0  0  0
   43.6209   25.6973   48.1998 H   0  0  0  0  0  0  0  0  0  0  0  0
   43.6426   24.8675   46.5861 H   0  0  0  0  0  0  0  0  0  0  0  0
   45.9003   25.3866   47.6478 H   0  0  0  0  0  0  0  0  0  0  0  0
   45.6221   25.9322   45.9390 H   0  0  0  0  0  0  0  0  0  0  0  0
   46.7412   27.6887   47.1140 H   0  0  0  0  0  0  0  0  0  0  0  0
   45.5279   27.6059   48.4591 H   0  0  0  0  0  0  0  0  0  0  0  0
   47.8792   33.1811   45.9554 H   0  0  0  0  0  0  0  0  0  0  0  0
   47.3367   32.1287   44.5697 H   0  0  0  0  0  0  0  0  0  0  0  0
   43.7223   35.9764   45.5892 H   0  0  0  0  0  0  0  0  0  0  0  0
   44.2036   36.7272   43.2355 H   0  0  0  0  0  0  0  0  0  0  0  0
   46.0235   35.5713   41.9595 H   0  0  0  0  0  0  0  0  0  0  0  0
  1  2  1  0
  2  3  2  0
  2  7  1  0
  3  4  1  0
  4  5  2  0
  6  5  1  0
  7  6  2  0
  8  7  1  0
  8 13  1  0
  9 10  1  0
  9  8  1  0
 10 11  1  0
 12 11  1  0
 12 13  1  0
 14  3  1  0
 15 20  2  0
 16 15  1  0
 17 18  1  0
 17 16  2  0
 18 19  2  0
 19 14  1  0
 19 20  1  0
  4 21  1  0
  5 22  1  0
  6 23  1  0
  9 24  1  0
  9 25  1  0
 10 26  1  0
 10 27  1  0
 11 28  1  0
 11 29  1  0
 12 30  1  0
 12 31  1  0
 13 32  1  0
 13 33  1  0
 14 34  1  0
 14 35  1  0
 15 36  1  0
 16 37  1  0
 17 38  1  0
M  ISO  8  21  14  22  14  23  14  24  13  25  13  26  13  27  13  28  13
M  ISO  8  29  13  30  13  31  13  32  13  33  13  34   8  35   8  36  14
M  ISO  2  37  14  38  14
M  END
>  <minimizedAffinity>  (1) 
-5.04590464

>  <minimizedRMSD>  (1) 
1.44878006

$$$$
