
     RDKit          3D

 32 33  0  0  0  0  0  0  0  0999 V2000
   45.7360   29.9200   44.8210 Br  0  0  0  0  0  0  0  0  0  0  0  0
   45.6870   30.5930   46.6160 C   0  0  0  0  0  0  0  0  0  0  0  0
   46.3250   31.7950   46.8240 C   0  0  0  0  0  0  0  0  0  0  0  0
   46.2750   32.2630   48.1400 C   0  0  0  0  0  0  0  0  0  0  0  0
   45.6450   31.5940   49.1620 C   0  0  0  0  0  0  0  0  0  0  0  0
   45.0290   30.3990   48.8840 C   0  0  0  0  0  0  0  0  0  0  0  0
   45.0400   29.8830   47.6150 C   0  0  0  0  0  0  0  0  0  0  0  0
   47.0250   32.6000   45.8320 C   0  0  0  0  0  0  0  0  0  0  0  0
   44.5180   35.3350   45.3790 C   0  0  0  0  0  0  0  0  0  0  0  0
   44.7440   35.7110   44.0600 C   0  0  0  0  0  0  0  0  0  0  0  0
   45.7300   35.0450   43.3460 C   0  0  0  0  0  0  0  0  0  0  0  0
   46.4160   34.0710   43.9620 N   0  0  0  0  0  0  0  0  0  0  0  0
   46.1990   33.6990   45.2530 C   0  0  0  0  0  0  0  0  0  0  0  0
   45.2330   34.3620   45.9280 N   0  0  0  0  0  0  0  0  0  0  0  0
   44.4160   28.6720   47.3280 O   0  0  0  0  0  0  0  0  0  0  0  0
   44.3620   26.0890   47.0490 O   0  0  0  0  0  0  0  0  0  0  0  0
   44.9910   27.1730   47.9070 P   0  0  2  0  0  0  0  0  0  0  0  0
   44.4830   27.0020   49.4990 O   0  0  0  0  0  0  0  0  0  0  0  0
   46.6580   27.0430   47.7620 O   0  0  0  0  0  0  0  0  0  0  0  0
   47.1260   25.7830   48.1090 C   0  0  0  0  0  0  0  0  0  0  0  0
   46.4170   25.3210   49.2030 F   0  0  0  0  0  0  0  0  0  0  0  0
   48.4440   25.9030   48.4970 F   0  0  0  0  0  0  0  0  0  0  0  0
   47.0640   24.8990   47.0510 F   0  0  0  0  0  0  0  0  0  0  0  0
   46.7670   33.2195   48.3705 H   0  0  0  0  0  0  0  0  0  0  0  0
   45.6346   32.0074   50.1813 H   0  0  0  0  0  0  0  0  0  0  0  0
   44.5206   29.8493   49.6898 H   0  0  0  0  0  0  0  0  0  0  0  0
   47.9095   33.0465   46.3099 H   0  0  0  0  0  0  0  0  0  0  0  0
   47.2876   31.9270   45.0024 H   0  0  0  0  0  0  0  0  0  0  0  0
   43.7435   35.8462   45.9696 H   0  0  0  0  0  0  0  0  0  0  0  0
   44.1563   36.5158   43.5942 H   0  0  0  0  0  0  0  0  0  0  0  0
   45.9438   35.3096   42.2999 H   0  0  0  0  0  0  0  0  0  0  0  0
   45.2216   27.2506   50.1096 H   0  0  0  0  0  0  0  0  0  0  0  0
  1  2  1  0
  2  3  2  0
  2  7  1  0
  3  4  1  0
  4  5  2  0
  6  5  1  0
  7  6  2  0
  8  3  1  0
  9 14  2  0
 10  9  1  0
 11 12  1  0
 11 10  2  0
 12 13  2  0
 13  8  1  0
 13 14  1  0
 15  7  1  0
 15 17  1  0
 17 16  2  0
 17 18  1  0
 19 17  1  0
 19 20  1  0
 20 22  1  0
 20 21  1  0
 23 20  1  0
  4 24  1  0
  5 25  1  0
  6 26  1  0
  8 27  1  0
  8 28  1  0
  9 29  1  0
 10 30  1  0
 11 31  1  0
 18 32  1  0
M  ISO  8  24  14  25  14  26  14  27   8  28   8  29  14  30  14  31  14
M  ISO  1  32   3
M  END
>  <minimizedAffinity>  (1) 
-5.04532242

>  <minimizedRMSD>  (1) 
0.810936809

$$$$
