
     RDKit          3D

 37 39  0  0  0  0  0  0  0  0999 V2000
   45.6180   29.9290   44.7430 Br  0  0  0  0  0  0  0  0  0  0  0  0
   45.6660   30.5750   46.5680 C   0  0  0  0  0  0  0  0  0  0  0  0
   46.3430   31.7400   46.7570 C   0  0  0  0  0  0  0  0  0  0  0  0
   46.3600   32.1830   48.0870 C   0  0  0  0  0  0  0  0  0  0  0  0
   45.7490   31.5040   49.1150 C   0  0  0  0  0  0  0  0  0  0  0  0
   45.0860   30.3330   48.8380 C   0  0  0  0  0  0  0  0  0  0  0  0
   45.0350   29.8500   47.5550 C   0  0  0  0  0  0  0  0  0  0  0  0
   47.0340   32.5630   45.7630 C   0  0  0  0  0  0  0  0  0  0  0  0
   44.5450   35.3120   45.3970 C   0  0  0  0  0  0  0  0  0  0  0  0
   44.7550   35.7220   44.0780 C   0  0  0  0  0  0  0  0  0  0  0  0
   45.7360   35.0580   43.3420 C   0  0  0  0  0  0  0  0  0  0  0  0
   46.4290   34.0660   43.9230 N   0  0  0  0  0  0  0  0  0  0  0  0
   46.2150   33.6740   45.2110 C   0  0  0  0  0  0  0  0  0  0  0  0
   45.2640   34.3230   45.9110 N   0  0  0  0  0  0  0  0  0  0  0  0
   44.3620   28.6600   47.2680 O   0  0  0  0  0  0  0  0  0  0  0  0
   44.1000   26.0880   47.0480 O   0  0  0  0  0  0  0  0  0  0  0  0
   44.9220   27.1390   47.7750 P   0  0  2  0  0  0  0  0  0  0  0  0
   44.7030   27.0200   49.4370 O   0  0  0  0  0  0  0  0  0  0  0  0
   46.5320   26.8980   47.3640 O   0  0  0  0  0  0  0  0  0  0  0  0
   47.4960   26.2500   48.0840 C   0  0  0  0  0  0  0  0  0  0  0  0
   47.1120   24.9560   48.4400 C   0  0  0  0  0  0  0  0  0  0  0  0
   47.9650   24.1410   49.1770 C   0  0  0  0  0  0  0  0  0  0  0  0
   49.1500   24.6560   49.5180 N   0  0  0  0  0  0  0  0  0  0  0  0
   49.5090   25.9000   49.1710 C   0  0  0  0  0  0  0  0  0  0  0  0
   48.6910   26.6950   48.4580 N   0  0  0  0  0  0  0  0  0  0  0  0
   46.8879   33.1196   48.3197 H   0  0  0  0  0  0  0  0  0  0  0  0
   45.7905   31.8925   50.1433 H   0  0  0  0  0  0  0  0  0  0  0  0
   44.5928   29.7791   49.6503 H   0  0  0  0  0  0  0  0  0  0  0  0
   47.9277   32.9961   46.2359 H   0  0  0  0  0  0  0  0  0  0  0  0
   47.2750   31.9003   44.9187 H   0  0  0  0  0  0  0  0  0  0  0  0
   43.7809   35.8110   46.0112 H   0  0  0  0  0  0  0  0  0  0  0  0
   44.1672   36.5398   43.6356 H   0  0  0  0  0  0  0  0  0  0  0  0
   45.9392   35.3434   42.2993 H   0  0  0  0  0  0  0  0  0  0  0  0
   45.4711   27.4373   49.9018 H   0  0  0  0  0  0  0  0  0  0  0  0
   46.1254   24.5772   48.1348 H   0  0  0  0  0  0  0  0  0  0  0  0
   47.6773   23.1194   49.4659 H   0  0  0  0  0  0  0  0  0  0  0  0
   50.4953   26.2795   49.4763 H   0  0  0  0  0  0  0  0  0  0  0  0
  1  2  1  0
  2  3  2  0
  2  7  1  0
  3  4  1  0
  4  5  2  0
  6  5  1  0
  7  6  2  0
  8  3  1  0
  9 14  2  0
 10  9  1  0
 11 12  1  0
 11 10  2  0
 12 13  2  0
 13  8  1  0
 13 14  1  0
 15  7  1  0
 15 17  1  0
 17 16  2  0
 17 18  1  0
 19 17  1  0
 19 20  1  0
 20 21  2  0
 20 25  1  0
 21 22  1  0
 22 23  2  0
 24 23  1  0
 25 24  2  0
  4 26  1  0
  5 27  1  0
  6 28  1  0
  8 29  1  0
  8 30  1  0
  9 31  1  0
 10 32  1  0
 11 33  1  0
 18 34  1  0
 21 35  1  0
 22 36  1  0
 24 37  1  0
M  ISO  8  26  14  27  14  28  14  29   8  30   8  31  14  32  14  33  14
M  ISO  4  34   3  35  14  36  14  37  14
M  END
>  <minimizedAffinity>  (1) 
-5.3057251

>  <minimizedRMSD>  (1) 
0.627766132

$$$$
