
     RDKit          3D

 30 31  0  0  0  0  0  0  0  0999 V2000
   43.5600   35.4440   41.3210 S   0  0  0  0  0  0  0  0  0  0  0  0
   44.2500   35.8190   43.9940 C   0  0  0  0  0  0  0  0  0  0  0  0
   44.2820   34.9390   42.9030 C   0  0  0  0  0  0  0  0  0  0  0  0
   44.8610   33.6690   43.0070 C   0  0  0  0  0  0  0  0  0  0  0  0
   45.3930   33.3400   44.2290 N   0  0  0  0  0  0  0  0  0  0  0  0
   45.3440   34.2070   45.2500 C   0  0  0  0  0  0  0  0  0  0  0  0
   44.7940   35.4220   45.1670 N   0  0  0  0  0  0  0  0  0  0  0  0
   42.9080   33.9950   40.4630 C   0  0  0  0  0  0  0  0  0  0  0  0
   41.7240   34.3320   39.5890 C   0  0  0  0  0  0  0  0  0  0  0  0
   42.0470   35.3830   38.5670 C   0  0  0  0  0  0  0  0  0  0  0  0
   40.8680   35.5540   37.6560 C   0  0  0  0  0  0  0  0  0  0  0  0
   39.6990   34.6800   37.9810 C   0  0  0  0  0  0  0  0  0  0  0  0
   39.3180   34.6590   39.4320 C   0  0  0  0  0  0  0  0  0  0  0  0
   40.5190   34.7750   40.3640 C   0  0  0  0  0  0  0  0  0  0  0  0
   43.7909   36.8140   43.8978 H   0  0  0  0  0  0  0  0  0  0  0  0
   44.8883   32.9725   42.1560 H   0  0  0  0  0  0  0  0  0  0  0  0
   45.7817   33.9007   46.2116 H   0  0  0  0  0  0  0  0  0  0  0  0
   43.7030   33.5693   39.8331 H   0  0  0  0  0  0  0  0  0  0  0  0
   42.5708   33.2762   41.2243 H   0  0  0  0  0  0  0  0  0  0  0  0
   41.4841   33.3863   39.0810 H   0  0  0  0  0  0  0  0  0  0  0  0
   42.2639   36.3354   39.0728 H   0  0  0  0  0  0  0  0  0  0  0  0
   42.9275   35.0767   37.9832 H   0  0  0  0  0  0  0  0  0  0  0  0
   41.1916   35.3267   36.6295 H   0  0  0  0  0  0  0  0  0  0  0  0
   40.5256   36.5920   37.7803 H   0  0  0  0  0  0  0  0  0  0  0  0
   38.8331   35.0370   37.4042 H   0  0  0  0  0  0  0  0  0  0  0  0
   39.9966   33.6531   37.7224 H   0  0  0  0  0  0  0  0  0  0  0  0
   38.6389   35.5017   39.6285 H   0  0  0  0  0  0  0  0  0  0  0  0
   38.8377   33.6899   39.6325 H   0  0  0  0  0  0  0  0  0  0  0  0
   40.3778   34.1294   41.2433 H   0  0  0  0  0  0  0  0  0  0  0  0
   40.6405   35.8091   40.7187 H   0  0  0  0  0  0  0  0  0  0  0  0
  1  3  1  0
  2  7  2  0
  3  4  2  0
  3  2  1  0
  4  5  1  0
  5  6  2  0
  7  6  1  0
  8  1  1  0
  9 14  1  0
  9  8  1  0
 10  9  1  0
 11 12  1  0
 11 10  1  0
 12 13  1  0
 13 14  1  0
  2 15  1  0
  4 16  1  0
  6 17  1  0
  8 18  1  0
  8 19  1  0
  9 20  1  0
 10 21  1  0
 10 22  1  0
 11 23  1  0
 11 24  1  0
 12 25  1  0
 12 26  1  0
 13 27  1  0
 13 28  1  0
 14 29  1  0
 14 30  1  0
M  ISO  8  15  14  16  14  17  14  18   8  19   8  20  13  21  13  22  13
M  ISO  8  23  13  24  13  25  13  26  13  27  13  28  13  29  13  30  13
M  END
>  <minimizedAffinity>  (1) 
-4.62098026

>  <minimizedRMSD>  (1) 
1.69722056

$$$$
