
     RDKit          3D

 36 37  0  0  0  0  0  0  0  0999 V2000
   46.7390   32.5310   45.8850 C   0  0  0  0  0  0  0  0  0  0  0  0
   46.1470   31.7990   46.9980 C   0  0  0  0  0  0  0  0  0  0  0  0
   45.3940   32.2670   48.0510 C   0  0  0  0  0  0  0  0  0  0  0  0
   44.8840   31.4850   49.0360 C   0  0  0  0  0  0  0  0  0  0  0  0
   45.1330   30.1360   48.9850 C   0  0  0  0  0  0  0  0  0  0  0  0
   45.8860   29.6410   47.9400 C   0  0  0  0  0  0  0  0  0  0  0  0
   46.3940   30.4610   46.9490 C   0  0  0  0  0  0  0  0  0  0  0  0
   48.4830   29.3590   46.4370 C   0  0  0  0  0  0  0  0  0  0  0  0
   49.3300   29.6760   47.3510 O   0  0  0  0  0  0  0  0  0  0  0  0
   47.1200   29.5990   46.0680 N   0  0  0  0  0  0  0  0  0  0  0  0
   45.9610   32.3300   44.6110 C   0  0  0  0  0  0  0  0  0  0  0  0
   44.6110   35.7320   44.7530 C   0  0  0  0  0  0  0  0  0  0  0  0
   44.1800   35.9460   43.4230 C   0  0  0  0  0  0  0  0  0  0  0  0
   44.3760   34.9070   42.5310 C   0  0  0  0  0  0  0  0  0  0  0  0
   44.9530   33.7600   42.9460 N   0  0  0  0  0  0  0  0  0  0  0  0
   45.3420   33.6180   44.2320 C   0  0  0  0  0  0  0  0  0  0  0  0
   45.1840   34.5670   45.1220 N   0  0  0  0  0  0  0  0  0  0  0  0
   43.9210   35.1370   41.1340 C   0  0  0  0  0  0  0  0  0  0  0  0
   42.4280   35.3800   41.0720 C   0  0  0  0  0  0  0  0  0  0  0  0
   46.7517   33.6033   46.1298 H   0  0  0  0  0  0  0  0  0  0  0  0
   47.7593   32.1511   45.7280 H   0  0  0  0  0  0  0  0  0  0  0  0
   45.1921   33.3473   48.0972 H   0  0  0  0  0  0  0  0  0  0  0  0
   44.2881   31.9198   49.8520 H   0  0  0  0  0  0  0  0  0  0  0  0
   44.7402   29.4632   49.7615 H   0  0  0  0  0  0  0  0  0  0  0  0
   46.0885   28.5608   47.8938 H   0  0  0  0  0  0  0  0  0  0  0  0
   48.9566   28.6893   45.7041 H   0  0  0  0  0  0  0  0  0  0  0  0
   46.6934   29.1811   45.2288 H   0  0  0  0  0  0  0  0  0  0  0  0
   46.6380   31.9941   43.8117 H   0  0  0  0  0  0  0  0  0  0  0  0
   45.1828   31.5671   44.7606 H   0  0  0  0  0  0  0  0  0  0  0  0
   44.4769   36.5287   45.4995 H   0  0  0  0  0  0  0  0  0  0  0  0
   43.7120   36.8920   43.1132 H   0  0  0  0  0  0  0  0  0  0  0  0
   44.4437   36.0153   40.7274 H   0  0  0  0  0  0  0  0  0  0  0  0
   44.1502   34.2380   40.5429 H   0  0  0  0  0  0  0  0  0  0  0  0
   42.0245   35.4457   42.0932 H   0  0  0  0  0  0  0  0  0  0  0  0
   42.2316   36.3219   40.5389 H   0  0  0  0  0  0  0  0  0  0  0  0
   41.9431   34.5490   40.5389 H   0  0  0  0  0  0  0  0  0  0  0  0
  1  2  1  0
  2  3  2  0
  3  4  1  0
  5  4  2  0
  6  5  1  0
  7  2  1  0
  7  6  2  0
  8  9  2  0
 10  8  1  0
 10  7  1  0
 11  1  1  0
 12 17  2  0
 13 12  1  0
 14 15  1  0
 14 13  2  0
 15 16  2  0
 16 11  1  0
 16 17  1  0
 18 14  1  0
 19 18  1  0
  1 20  1  0
  1 21  1  0
  3 22  1  0
  4 23  1  0
  5 24  1  0
  6 25  1  0
  8 26  1  0
 10 27  1  0
 11 28  1  0
 11 29  1  0
 12 30  1  0
 13 31  1  0
 18 32  1  0
 18 33  1  0
 19 34  1  0
 19 35  1  0
 19 36  1  0
M  ISO  8  20   8  21   8  22  14  23  14  24  14  25  14  26   6  28   8
M  ISO  8  29   8  30  14  31  14  32   8  33   8  34   8  35   8  36   8
M  END
>  <minimizedAffinity>  (1) 
-4.76764345

>  <minimizedRMSD>  (1) 
1.04440248

$$$$
