
     RDKit          3D

 28 29  0  0  0  0  0  0  0  0999 V2000
   43.1070   33.9020   40.9200 C   0  0  0  0  0  0  0  0  0  0  0  0
   41.7590   34.3210   40.7190 N   0  0  0  0  0  0  0  0  0  0  0  0
   41.3870   35.5170   41.3970 C   0  0  0  0  0  0  0  0  0  0  0  0
   40.2360   36.1350   40.6290 C   0  0  0  0  0  0  0  0  0  0  0  0
   39.5230   35.1170   39.8530 N   0  0  0  0  0  0  0  0  0  0  0  0
   39.4130   33.9300   40.6840 C   0  0  0  0  0  0  0  0  0  0  0  0
   40.7750   33.2950   40.8820 C   0  0  0  0  0  0  0  0  0  0  0  0
   44.2260   35.1550   41.5370 S   0  0  0  0  0  0  0  0  0  0  0  0
   44.3390   35.6890   44.2720 C   0  0  0  0  0  0  0  0  0  0  0  0
   44.6530   34.7670   43.2520 C   0  0  0  0  0  0  0  0  0  0  0  0
   45.2900   33.5560   43.5490 C   0  0  0  0  0  0  0  0  0  0  0  0
   45.5790   33.3350   44.8660 N   0  0  0  0  0  0  0  0  0  0  0  0
   45.2660   34.2300   45.8030 C   0  0  0  0  0  0  0  0  0  0  0  0
   44.6640   35.3830   45.5450 N   0  0  0  0  0  0  0  0  0  0  0  0
   43.4975   33.5457   39.9553 H   0  0  0  0  0  0  0  0  0  0  0  0
   43.0667   33.1265   41.6991 H   0  0  0  0  0  0  0  0  0  0  0  0
   41.0710   35.2838   42.4245 H   0  0  0  0  0  0  0  0  0  0  0  0
   42.2367   36.2135   41.4497 H   0  0  0  0  0  0  0  0  0  0  0  0
   39.5378   36.6019   41.3393 H   0  0  0  0  0  0  0  0  0  0  0  0
   40.6383   36.8890   39.9365 H   0  0  0  0  0  0  0  0  0  0  0  0
   38.5842   35.4592   39.6030 H   0  0  0  0  0  0  0  0  0  0  0  0
   38.9981   34.2105   41.6634 H   0  0  0  0  0  0  0  0  0  0  0  0
   38.7510   33.2062   40.1861 H   0  0  0  0  0  0  0  0  0  0  0  0
   40.9317   32.5030   40.1349 H   0  0  0  0  0  0  0  0  0  0  0  0
   40.8491   32.8444   41.8827 H   0  0  0  0  0  0  0  0  0  0  0  0
   43.8387   36.6393   44.0341 H   0  0  0  0  0  0  0  0  0  0  0  0
   45.5431   32.8248   42.7672 H   0  0  0  0  0  0  0  0  0  0  0  0
   45.5212   33.9994   46.8478 H   0  0  0  0  0  0  0  0  0  0  0  0
  1  8  1  0
  2  7  1  0
  2  1  1  0
  2  3  1  0
  4  3  1  0
  5  4  1  0
  5  6  1  0
  6  7  1  0
  8 10  1  0
  9 14  2  0
 10 11  2  0
 10  9  1  0
 11 12  1  0
 12 13  2  0
 14 13  1  0
  1 15  1  0
  1 16  1  0
  3 17  1  0
  3 18  1  0
  4 19  1  0
  4 20  1  0
  5 21  1  0
  6 22  1  0
  6 23  1  0
  7 24  1  0
  7 25  1  0
  9 26  1  0
 11 27  1  0
 13 28  1  0
M  ISO  8  15   8  16   8  17  13  18  13  19  13  20  13  21   5  22  13
M  ISO  6  23  13  24  13  25  13  26  14  27  14  28  14
M  END
>  <minimizedAffinity>  (1) 
-4.15386438

>  <minimizedRMSD>  (1) 
2.57849407

$$$$
