
     RDKit          3D

 18 18  0  0  0  0  0  0  0  0999 V2000
   44.3220   35.6760   44.2760 C   0  0  0  0  0  0  0  0  0  0  0  0
   44.6190   34.7370   43.2660 C   0  0  0  0  0  0  0  0  0  0  0  0
   45.2620   33.5230   43.5340 C   0  0  0  0  0  0  0  0  0  0  0  0
   45.5820   33.3160   44.8440 N   0  0  0  0  0  0  0  0  0  0  0  0
   45.2880   34.2220   45.7770 C   0  0  0  0  0  0  0  0  0  0  0  0
   44.6750   35.3830   45.5430 N   0  0  0  0  0  0  0  0  0  0  0  0
   44.1590   35.0970   41.5590 S   0  0  0  0  0  0  0  0  0  0  0  0
   42.5380   34.4090   41.2090 C   0  0  0  0  0  0  0  0  0  0  0  0
   40.5290   35.9150   41.0440 C   0  0  0  0  0  0  0  0  0  0  0  0
   40.5950   36.0180   39.7890 O   0  0  0  0  0  0  0  0  0  0  0  0
   41.4480   35.1420   41.8080 N   0  0  0  0  0  0  0  0  0  0  0  0
   43.8156   36.6224   44.0356 H   0  0  0  0  0  0  0  0  0  0  0  0
   45.4923   32.7901   42.7467 H   0  0  0  0  0  0  0  0  0  0  0  0
   45.5717   33.9953   46.8153 H   0  0  0  0  0  0  0  0  0  0  0  0
   42.3929   34.4026   40.1186 H   0  0  0  0  0  0  0  0  0  0  0  0
   42.5199   33.3989   41.6442 H   0  0  0  0  0  0  0  0  0  0  0  0
   39.7243   36.4470   41.5726 H   0  0  0  0  0  0  0  0  0  0  0  0
   41.3305   35.1040   42.8306 H   0  0  0  0  0  0  0  0  0  0  0  0
  1  6  2  0
  2  3  2  0
  2  1  1  0
  3  4  1  0
  4  5  2  0
  6  5  1  0
  7  2  1  0
  8  7  1  0
  8 11  1  0
  9 11  1  0
 10  9  2  0
  1 12  1  0
  3 13  1  0
  5 14  1  0
  8 15  1  0
  8 16  1  0
  9 17  1  0
 11 18  1  0
M  ISO  6  12  14  13  14  14  14  15   8  16   8  17   6
M  END
>  <minimizedAffinity>  (1) 
-3.44429874

>  <minimizedRMSD>  (1) 
1.64419079

$$$$
