
     RDKit          3D

 15 15  0  0  0  0  0  0  0  0999 V2000
   44.2990   35.7190   44.3130 C   0  0  0  0  0  0  0  0  0  0  0  0
   44.4320   34.9340   43.1630 C   0  0  0  0  0  0  0  0  0  0  0  0
   45.0610   33.6910   43.2340 C   0  0  0  0  0  0  0  0  0  0  0  0
   45.5210   33.3070   44.4590 N   0  0  0  0  0  0  0  0  0  0  0  0
   45.3820   34.0740   45.5440 C   0  0  0  0  0  0  0  0  0  0  0  0
   44.7860   35.2640   45.5030 N   0  0  0  0  0  0  0  0  0  0  0  0
   43.7920   35.5330   41.5920 S   0  0  0  0  0  0  0  0  0  0  0  0
   43.8800   34.1930   40.3790 C   0  0  0  0  0  0  0  0  0  0  0  0
   43.4160   34.6990   39.1650 O   0  0  0  0  0  0  0  0  0  0  0  0
   43.8035   36.6996   44.2579 H   0  0  0  0  0  0  0  0  0  0  0  0
   45.1800   33.0525   42.3463 H   0  0  0  0  0  0  0  0  0  0  0  0
   45.7737   33.7096   46.5051 H   0  0  0  0  0  0  0  0  0  0  0  0
   44.9199   33.8511   40.2711 H   0  0  0  0  0  0  0  0  0  0  0  0
   43.2701   33.3362   40.7015 H   0  0  0  0  0  0  0  0  0  0  0  0
   42.7571   35.4175   39.3372 H   0  0  0  0  0  0  0  0  0  0  0  0
  1  6  2  0
  2  3  2  0
  2  1  1  0
  3  4  1  0
  4  5  2  0
  6  5  1  0
  7  2  1  0
  8  7  1  0
  9  8  1  0
  1 10  1  0
  3 11  1  0
  5 12  1  0
  8 13  1  0
  8 14  1  0
  9 15  1  0
M  ISO  6  10  14  11  14  12  14  13   8  14   8  15   3
M  END
>  <minimizedAffinity>  (1) 
-2.86979747

>  <minimizedRMSD>  (1) 
0.0776258186

$$$$
