
     RDKit          3D

 16 16  0  0  0  0  0  0  0  0999 V2000
   44.2730   35.7600   44.2770 C   0  0  0  0  0  0  0  0  0  0  0  0
   44.4390   34.9120   43.1660 C   0  0  0  0  0  0  0  0  0  0  0  0
   45.0670   33.6630   43.2630 C   0  0  0  0  0  0  0  0  0  0  0  0
   45.5030   33.3260   44.5100 N   0  0  0  0  0  0  0  0  0  0  0  0
   45.3300   34.1550   45.5460 C   0  0  0  0  0  0  0  0  0  0  0  0
   44.7360   35.3450   45.4710 N   0  0  0  0  0  0  0  0  0  0  0  0
   43.8230   35.4450   41.5570 S   0  0  0  0  0  0  0  0  0  0  0  0
   42.9800   34.0950   40.7450 C   0  0  0  0  0  0  0  0  0  0  0  0
   41.5670   34.0310   41.1270 N   0  0  0  0  0  0  0  0  0  0  0  0
   43.7777   36.7366   44.1724 H   0  0  0  0  0  0  0  0  0  0  0  0
   45.1989   33.0012   42.3943 H   0  0  0  0  0  0  0  0  0  0  0  0
   45.7045   33.8312   46.5283 H   0  0  0  0  0  0  0  0  0  0  0  0
   43.4682   33.1499   41.0249 H   0  0  0  0  0  0  0  0  0  0  0  0
   43.0347   34.2601   39.6588 H   0  0  0  0  0  0  0  0  0  0  0  0
   41.4888   34.0275   42.1540 H   0  0  0  0  0  0  0  0  0  0  0  0
   41.0714   34.8504   40.7478 H   0  0  0  0  0  0  0  0  0  0  0  0
  1  6  2  0
  2  3  2  0
  2  1  1  0
  3  4  1  0
  4  5  2  0
  6  5  1  0
  7  2  1  0
  8  9  1  0
  8  7  1  0
  1 10  1  0
  3 11  1  0
  5 12  1  0
  8 13  1  0
  8 14  1  0
  9 15  1  0
  9 16  1  0
M  ISO  7  10  14  11  14  12  14  13   8  14   8  15   5  16   5
M  END
>  <minimizedAffinity>  (1) 
-2.72610331

>  <minimizedRMSD>  (1) 
0.709747493

$$$$
