
     RDKit          3D

 28 28  0  0  0  0  0  0  0  0999 V2000
   43.3480   35.4490   41.5850 C   0  0  0  0  0  0  0  0  0  0  0  0
   43.2650   35.6300   43.0380 N   0  0  0  0  0  0  0  0  0  0  0  0
   44.8270   35.8750   43.7410 S   0  0  0  0  0  0  0  0  0  0  0  0
   45.9110   35.6360   42.7650 O   0  0  0  0  0  0  0  0  0  0  0  0
   44.8430   37.3090   44.2160 O   0  0  0  0  0  0  0  0  0  0  0  0
   44.9670   34.9180   45.1030 O   0  0  0  0  0  0  0  0  0  0  0  0
   45.5190   33.6840   44.8500 C   0  0  0  0  0  0  0  0  0  0  0  0
   46.2970   33.2830   46.1110 C   0  0  0  0  0  0  0  0  0  0  0  0
   42.7670   33.7940   41.2220 S   0  0  0  0  0  0  0  0  0  0  0  0
   40.0900   33.0850   41.2880 C   0  0  0  0  0  0  0  0  0  0  0  0
   41.0490   33.8610   40.6690 C   0  0  0  0  0  0  0  0  0  0  0  0
   40.7060   34.7000   39.6150 C   0  0  0  0  0  0  0  0  0  0  0  0
   39.4000   34.7110   39.2400 N   0  0  0  0  0  0  0  0  0  0  0  0
   38.4990   33.9560   39.8520 C   0  0  0  0  0  0  0  0  0  0  0  0
   38.7870   33.1350   40.8680 N   0  0  0  0  0  0  0  0  0  0  0  0
   42.7146   36.1906   41.0762 H   0  0  0  0  0  0  0  0  0  0  0  0
   44.3813   35.5855   41.2334 H   0  0  0  0  0  0  0  0  0  0  0  0
   42.6757   36.4504   43.2393 H   0  0  0  0  0  0  0  0  0  0  0  0
   46.7549   35.4499   43.2481 H   0  0  0  0  0  0  0  0  0  0  0  0
   44.8432   37.3288   45.2058 H   0  0  0  0  0  0  0  0  0  0  0  0
   44.7268   32.9493   44.6434 H   0  0  0  0  0  0  0  0  0  0  0  0
   46.1797   33.7183   43.9712 H   0  0  0  0  0  0  0  0  0  0  0  0
   45.7255   33.5775   47.0036 H   0  0  0  0  0  0  0  0  0  0  0  0
   46.4500   32.1937   46.1165 H   0  0  0  0  0  0  0  0  0  0  0  0
   47.2730   33.7904   46.1165 H   0  0  0  0  0  0  0  0  0  0  0  0
   40.3728   32.4245   42.1209 H   0  0  0  0  0  0  0  0  0  0  0  0
   41.4561   35.3252   39.1087 H   0  0  0  0  0  0  0  0  0  0  0  0
   37.4564   34.0073   39.5052 H   0  0  0  0  0  0  0  0  0  0  0  0
  1  2  1  0
  2  3  1  0
  3  5  1  0
  3  6  1  0
  4  3  1  0
  7  6  1  0
  7  8  1  0
  9  1  1  0
 11  9  1  0
 11 10  2  0
 12 11  1  0
 13 12  2  0
 13 14  1  0
 14 15  2  0
 15 10  1  0
  1 16  1  0
  1 17  1  0
  2 18  1  0
  4 19  1  0
  5 20  1  0
  7 21  1  0
  7 22  1  0
  8 23  1  0
  8 24  1  0
  8 25  1  0
 10 26  1  0
 12 27  1  0
 14 28  1  0
M  ISO  8  16   8  17   8  18   5  19   3  20   3  21   8  22   8  23   8
M  ISO  5  24   8  25   8  26  14  27  14  28  14
M  END
>  <minimizedAffinity>  (1) 
-4.53079796

>  <minimizedRMSD>  (1) 
1.86197448

$$$$
