
     RDKit          3D

 33 35  0  0  0  0  0  0  0  0999 V2000
   44.8360   36.1170   43.4560 S   0  0  0  0  0  0  0  0  0  0  0  0
   43.4230   35.9000   42.4890 N   0  0  0  0  0  0  0  0  0  0  0  0
   43.7400   35.2250   41.2360 C   0  0  0  0  0  0  0  0  0  0  0  0
   42.9210   33.6210   41.2710 S   0  0  0  0  0  0  0  0  0  0  0  0
   40.2070   33.0780   41.3060 C   0  0  0  0  0  0  0  0  0  0  0  0
   41.2150   33.8270   40.7220 C   0  0  0  0  0  0  0  0  0  0  0  0
   40.9230   34.7500   39.7020 C   0  0  0  0  0  0  0  0  0  0  0  0
   39.6070   34.8530   39.3370 N   0  0  0  0  0  0  0  0  0  0  0  0
   38.6760   34.1020   39.9380 C   0  0  0  0  0  0  0  0  0  0  0  0
   38.9070   33.2140   40.9090 N   0  0  0  0  0  0  0  0  0  0  0  0
   46.0470   35.5500   42.8180 O   0  0  0  0  0  0  0  0  0  0  0  0
   44.9700   37.6300   43.6310 O   0  0  0  0  0  0  0  0  0  0  0  0
   44.5520   35.5270   44.9820 O   0  0  0  0  0  0  0  0  0  0  0  0
   46.1370   33.5340   45.1440 N   0  0  0  0  0  0  0  0  0  0  0  0
   45.2030   34.4250   45.5170 C   0  0  0  0  0  0  0  0  0  0  0  0
   44.8080   34.1320   46.7830 N   0  0  0  0  0  0  0  0  0  0  0  0
   45.4790   33.0600   47.2260 C   0  0  0  0  0  0  0  0  0  0  0  0
   45.5460   32.2910   48.3650 C   0  0  0  0  0  0  0  0  0  0  0  0
   46.3790   31.2500   48.4390 N   0  0  0  0  0  0  0  0  0  0  0  0
   47.1800   30.9190   47.4000 C   0  0  0  0  0  0  0  0  0  0  0  0
   47.1380   31.6610   46.2560 N   0  0  0  0  0  0  0  0  0  0  0  0
   46.2920   32.7170   46.1880 C   0  0  0  0  0  0  0  0  0  0  0  0
   42.7412   35.3330   43.0129 H   0  0  0  0  0  0  0  0  0  0  0  0
   44.8280   35.0905   41.1455 H   0  0  0  0  0  0  0  0  0  0  0  0
   43.3976   35.8189   40.3757 H   0  0  0  0  0  0  0  0  0  0  0  0
   40.4573   32.3619   42.1026 H   0  0  0  0  0  0  0  0  0  0  0  0
   41.7075   35.3552   39.2242 H   0  0  0  0  0  0  0  0  0  0  0  0
   37.6350   34.2263   39.6049 H   0  0  0  0  0  0  0  0  0  0  0  0
   46.6807   35.2533   43.5183 H   0  0  0  0  0  0  0  0  0  0  0  0
   44.9895   37.8501   44.5960 H   0  0  0  0  0  0  0  0  0  0  0  0
   46.6304   33.4905   44.2409 H   0  0  0  0  0  0  0  0  0  0  0  0
   44.9056   32.5367   49.2250 H   0  0  0  0  0  0  0  0  0  0  0  0
   47.8601   30.0579   47.4772 H   0  0  0  0  0  0  0  0  0  0  0  0
  1 12  1  0
  1 13  1  0
  2  1  1  0
  3  4  1  0
  3  2  1  0
  6  4  1  0
  6  5  2  0
  7  6  1  0
  8  7  2  0
  8  9  1  0
  9 10  2  0
 10  5  1  0
 11  1  1  0
 13 15  1  0
 14 15  1  0
 14 22  1  0
 15 16  2  0
 16 17  1  0
 17 18  2  0
 18 19  1  0
 20 19  2  0
 21 20  1  0
 22 21  2  0
 22 17  1  0
  2 23  1  0
  3 24  1  0
  3 25  1  0
  5 26  1  0
  7 27  1  0
  9 28  1  0
 11 29  1  0
 12 30  1  0
 14 31  1  0
 18 32  1  0
 20 33  1  0
M  ISO  8  23   5  24   8  25   8  26  14  27  14  28  14  29   3  30   3
M  ISO  3  31   9  32  14  33  14
M  END
>  <minimizedAffinity>  (1) 
-5.71530485

>  <minimizedRMSD>  (1) 
1.92724872

$$$$
