
     RDKit          3D

 46 48  0  0  0  0  0  0  0  0999 V2000
   44.7030   35.6980   44.1920 C   0  0  0  0  0  0  0  0  0  0  0  0
   44.0200   35.6870   42.9440 C   0  0  0  0  0  0  0  0  0  0  0  0
   44.0060   34.5020   42.2460 C   0  0  0  0  0  0  0  0  0  0  0  0
   44.6290   33.4110   42.7580 N   0  0  0  0  0  0  0  0  0  0  0  0
   45.2600   33.4850   43.9470 C   0  0  0  0  0  0  0  0  0  0  0  0
   45.3070   34.5810   44.6540 N   0  0  0  0  0  0  0  0  0  0  0  0
   45.9090   32.2530   44.4320 C   0  0  0  0  0  0  0  0  0  0  0  0
   46.6830   32.5690   45.6920 C   0  0  0  0  0  0  0  0  0  0  0  0
   46.1330   31.8990   46.8490 C   0  0  0  0  0  0  0  0  0  0  0  0
   45.3330   32.4120   47.8490 C   0  0  0  0  0  0  0  0  0  0  0  0
   44.8610   31.6850   48.8990 C   0  0  0  0  0  0  0  0  0  0  0  0
   45.2000   30.3590   48.9750 C   0  0  0  0  0  0  0  0  0  0  0  0
   45.9960   29.8320   47.9860 C   0  0  0  0  0  0  0  0  0  0  0  0
   46.4690   30.5810   46.9250 C   0  0  0  0  0  0  0  0  0  0  0  0
   48.5930   29.4870   46.6030 C   0  0  0  0  0  0  0  0  0  0  0  0
   49.3490   29.8450   47.5770 O   0  0  0  0  0  0  0  0  0  0  0  0
   47.2700   29.7110   46.1110 N   0  0  0  0  0  0  0  0  0  0  0  0
   43.2910   34.5390   40.9580 C   0  0  0  0  0  0  0  0  0  0  0  0
   42.2530   35.6480   40.9130 C   0  0  0  0  0  0  0  0  0  0  0  0
   42.4570   35.8360   38.0750 F   0  0  0  0  0  0  0  0  0  0  0  0
   41.3210   35.3360   38.6150 C   0  0  0  0  0  0  0  0  0  0  0  0
   41.1740   35.2220   39.9850 C   0  0  0  0  0  0  0  0  0  0  0  0
   39.9820   34.6960   40.4690 C   0  0  0  0  0  0  0  0  0  0  0  0
   38.9670   34.2970   39.6180 C   0  0  0  0  0  0  0  0  0  0  0  0
   39.1110   34.4110   38.2530 C   0  0  0  0  0  0  0  0  0  0  0  0
   40.3070   34.9380   37.7640 C   0  0  0  0  0  0  0  0  0  0  0  0
   44.7397   36.6233   44.7857 H   0  0  0  0  0  0  0  0  0  0  0  0
   43.5241   36.5881   42.5539 H   0  0  0  0  0  0  0  0  0  0  0  0
   45.1434   31.4938   44.6498 H   0  0  0  0  0  0  0  0  0  0  0  0
   46.5928   31.8649   43.6627 H   0  0  0  0  0  0  0  0  0  0  0  0
   47.7262   32.2469   45.5579 H   0  0  0  0  0  0  0  0  0  0  0  0
   46.6200   33.6533   45.8660 H   0  0  0  0  0  0  0  0  0  0  0  0
   45.0590   33.4760   47.7946 H   0  0  0  0  0  0  0  0  0  0  0  0
   44.2243   32.1496   49.6663 H   0  0  0  0  0  0  0  0  0  0  0  0
   44.8441   29.7326   49.8062 H   0  0  0  0  0  0  0  0  0  0  0  0
   46.2685   28.7677   48.0414 H   0  0  0  0  0  0  0  0  0  0  0  0
   49.1307   28.7917   45.9416 H   0  0  0  0  0  0  0  0  0  0  0  0
   46.9194   29.2827   45.2423 H   0  0  0  0  0  0  0  0  0  0  0  0
   44.0209   34.7032   40.1516 H   0  0  0  0  0  0  0  0  0  0  0  0
   42.7678   33.5795   40.8329 H   0  0  0  0  0  0  0  0  0  0  0  0
   41.8383   35.8136   41.9183 H   0  0  0  0  0  0  0  0  0  0  0  0
   42.7089   36.5874   40.5671 H   0  0  0  0  0  0  0  0  0  0  0  0
   39.8423   34.5945   41.5554 H   0  0  0  0  0  0  0  0  0  0  0  0
   38.0364   33.8849   40.0353 H   0  0  0  0  0  0  0  0  0  0  0  0
   38.3084   34.0965   37.5697 H   0  0  0  0  0  0  0  0  0  0  0  0
   40.4459   35.0389   36.6775 H   0  0  0  0  0  0  0  0  0  0  0  0
  1  6  2  0
  2  1  1  0
  3  4  1  0
  3  2  2  0
  4  5  2  0
  5  7  1  0
  5  6  1  0
  7  8  1  0
  8  9  1  0
  9 14  1  0
  9 10  2  0
 10 11  1  0
 11 12  2  0
 13 12  1  0
 14 13  2  0
 15 16  2  0
 17 15  1  0
 17 14  1  0
 18  3  1  0
 19 18  1  0
 20 21  1  0
 21 22  2  0
 22 23  1  0
 22 19  1  0
 24 23  2  0
 25 24  1  0
 26 25  2  0
 26 21  1  0
  1 27  1  0
  2 28  1  0
  7 29  1  0
  7 30  1  0
  8 31  1  0
  8 32  1  0
 10 33  1  0
 11 34  1  0
 12 35  1  0
 13 36  1  0
 15 37  1  0
 17 38  1  0
 18 39  1  0
 18 40  1  0
 19 41  1  0
 19 42  1  0
 23 43  1  0
 24 44  1  0
 25 45  1  0
 26 46  1  0
M  ISO  8  27  14  28  14  29   8  30   8  31   8  32   8  33  14  34  14
M  ISO  8  35  14  36  14  37   6  39   8  40   8  41   8  42   8  43  14
M  ISO  3  44  14  45  14  46  14
M  END
>  <minimizedAffinity>  (1) 
-6.40915155

>  <minimizedRMSD>  (1) 
1.26350319

$$$$
