
     RDKit          3D

 36 38  0  0  0  0  0  0  0  0999 V2000
   43.2480   31.6160   39.3030 C   0  0  0  0  0  0  0  0  0  0  0  0
   43.6400   32.8570   39.7780 C   0  0  0  0  0  0  0  0  0  0  0  0
   44.4290   33.7250   39.0070 C   0  0  0  0  0  0  0  0  0  0  0  0
   44.7710   33.2580   37.7830 N   0  0  0  0  0  0  0  0  0  0  0  0
   44.3880   32.0620   37.3400 C   0  0  0  0  0  0  0  0  0  0  0  0
   43.6420   31.2360   38.0610 N   0  0  0  0  0  0  0  0  0  0  0  0
   44.8180   31.6890   36.0240 N   0  0  0  0  0  0  0  0  0  0  0  0
   44.1990   31.0600   35.0090 C   0  0  0  0  0  0  0  0  0  0  0  0
   45.0620   30.9520   33.9690 N   0  0  0  0  0  0  0  0  0  0  0  0
   46.2350   31.5290   34.3590 C   0  0  0  0  0  0  0  0  0  0  0  0
   47.4290   31.6730   33.6500 C   0  0  0  0  0  0  0  0  0  0  0  0
   48.4630   32.2970   34.2820 N   0  0  0  0  0  0  0  0  0  0  0  0
   48.3180   32.7540   35.5510 C   0  0  0  0  0  0  0  0  0  0  0  0
   47.1540   32.6160   36.2470 N   0  0  0  0  0  0  0  0  0  0  0  0
   46.0940   32.0020   35.6650 C   0  0  0  0  0  0  0  0  0  0  0  0
   43.1160   33.3670   41.4350 S   0  0  0  0  0  0  0  0  0  0  0  0
   43.4740   35.1180   41.6580 C   0  0  0  0  0  0  0  0  0  0  0  0
   43.2870   35.3970   43.0690 N   0  0  0  0  0  0  0  0  0  0  0  0
   44.7490   35.7680   43.8810 S   0  0  0  0  0  0  0  0  0  0  0  0
   45.9370   35.2420   43.1420 O   0  0  0  0  0  0  0  0  0  0  0  0
   44.8080   37.2740   43.9690 O   0  0  0  0  0  0  0  0  0  0  0  0
   44.6960   35.1810   45.4490 O   0  0  0  0  0  0  0  0  0  0  0  0
   45.4490   34.0370   45.6140 C   0  0  0  0  0  0  0  0  0  0  0  0
   42.6283   30.9503   39.9216 H   0  0  0  0  0  0  0  0  0  0  0  0
   44.7465   34.7133   39.3710 H   0  0  0  0  0  0  0  0  0  0  0  0
   43.1620   30.6932   35.0208 H   0  0  0  0  0  0  0  0  0  0  0  0
   47.5314   31.2974   32.6212 H   0  0  0  0  0  0  0  0  0  0  0  0
   49.1698   33.2536   36.0355 H   0  0  0  0  0  0  0  0  0  0  0  0
   44.5107   35.3353   41.3612 H   0  0  0  0  0  0  0  0  0  0  0  0
   42.8149   35.7424   41.0370 H   0  0  0  0  0  0  0  0  0  0  0  0
   42.6476   36.1991   43.1625 H   0  0  0  0  0  0  0  0  0  0  0  0
   46.6212   34.9390   43.7902 H   0  0  0  0  0  0  0  0  0  0  0  0
   44.8188   37.5488   44.9200 H   0  0  0  0  0  0  0  0  0  0  0  0
   45.5809   33.8365   46.6875 H   0  0  0  0  0  0  0  0  0  0  0  0
   44.9330   33.1873   45.1430 H   0  0  0  0  0  0  0  0  0  0  0  0
   46.4335   34.1749   45.1430 H   0  0  0  0  0  0  0  0  0  0  0  0
  1  2  2  0
  2 16  1  0
  3  2  1  0
  4  3  2  0
  5  4  1  0
  5  6  2  0
  6  1  1  0
  7  5  1  0
  8  7  1  0
  9 10  1  0
  9  8  2  0
 10 15  2  0
 11 12  2  0
 11 10  1  0
 12 13  1  0
 13 14  2  0
 15  7  1  0
 15 14  1  0
 16 17  1  0
 17 18  1  0
 18 19  1  0
 19 21  1  0
 19 22  1  0
 20 19  1  0
 22 23  1  0
  1 24  1  0
  3 25  1  0
  8 26  1  0
 11 27  1  0
 13 28  1  0
 17 29  1  0
 17 30  1  0
 18 31  1  0
 20 32  1  0
 21 33  1  0
 23 34  1  0
 23 35  1  0
 23 36  1  0
M  ISO  8  24  14  25  14  26  14  27  14  28  14  29   8  30   8  31   5
M  ISO  5  32   3  33   3  34   8  35   8  36   8
M  END
>  <minimizedAffinity>  (1) 
-4.92062283

>  <minimizedRMSD>  (1) 
7.34898901

$$$$
