
     RDKit          3D

 27 27  0  0  0  0  0  0  0  0999 V2000
   43.4880   35.5130   41.6930 C   0  0  0  0  0  0  0  0  0  0  0  0
   43.2880   35.6540   43.1370 N   0  0  0  0  0  0  0  0  0  0  0  0
   44.7580   35.9090   43.9790 S   0  0  0  0  0  0  0  0  0  0  0  0
   45.9210   35.3540   43.2470 O   0  0  0  0  0  0  0  0  0  0  0  0
   44.8950   37.4060   44.1410 O   0  0  0  0  0  0  0  0  0  0  0  0
   44.6440   35.2750   45.5210 O   0  0  0  0  0  0  0  0  0  0  0  0
   45.3760   34.1190   45.6700 C   0  0  0  0  0  0  0  0  0  0  0  0
   43.0900   33.8240   41.2580 S   0  0  0  0  0  0  0  0  0  0  0  0
   40.5190   34.4700   40.4720 C   0  0  0  0  0  0  0  0  0  0  0  0
   41.6920   33.8170   40.1200 C   0  0  0  0  0  0  0  0  0  0  0  0
   41.8020   33.1580   38.8990 C   0  0  0  0  0  0  0  0  0  0  0  0
   40.7050   33.1880   38.0760 N   0  0  0  0  0  0  0  0  0  0  0  0
   39.6000   33.8260   38.4560 C   0  0  0  0  0  0  0  0  0  0  0  0
   39.4670   34.4650   39.6140 N   0  0  0  0  0  0  0  0  0  0  0  0
   38.4490   33.8300   37.5390 C   0  0  0  0  0  0  0  0  0  0  0  0
   38.0900   32.6870   37.0960 O   0  0  0  0  0  0  0  0  0  0  0  0
   42.8263   36.2060   41.1527 H   0  0  0  0  0  0  0  0  0  0  0  0
   44.5274   35.7488   41.4208 H   0  0  0  0  0  0  0  0  0  0  0  0
   42.6656   36.4567   43.3078 H   0  0  0  0  0  0  0  0  0  0  0  0
   46.5960   35.0319   43.8956 H   0  0  0  0  0  0  0  0  0  0  0  0
   44.9158   37.6331   45.1044 H   0  0  0  0  0  0  0  0  0  0  0  0
   45.5109   33.9059   46.7407 H   0  0  0  0  0  0  0  0  0  0  0  0
   44.8422   33.2831   45.1942 H   0  0  0  0  0  0  0  0  0  0  0  0
   46.3598   34.2441   45.1942 H   0  0  0  0  0  0  0  0  0  0  0  0
   40.4423   34.9879   41.4394 H   0  0  0  0  0  0  0  0  0  0  0  0
   42.7260   32.6372   38.6074 H   0  0  0  0  0  0  0  0  0  0  0  0
   37.9312   34.7575   37.2535 H   0  0  0  0  0  0  0  0  0  0  0  0
  1  2  1  0
  2  3  1  0
  3  5  1  0
  3  6  1  0
  4  3  1  0
  6  7  1  0
  8  1  1  0
 10  9  2  0
 10  8  1  0
 11 10  1  0
 12 13  1  0
 12 11  2  0
 13 14  2  0
 14  9  1  0
 15 13  1  0
 16 15  2  0
  1 17  1  0
  1 18  1  0
  2 19  1  0
  4 20  1  0
  5 21  1  0
  7 22  1  0
  7 23  1  0
  7 24  1  0
  9 25  1  0
 11 26  1  0
 15 27  1  0
M  ISO  8  17   8  18   8  19   5  20   3  21   3  22   8  23   8  24   8
M  ISO  3  25  14  26  14  27   6
M  END
>  <minimizedAffinity>  (1) 
-4.53281975

>  <minimizedRMSD>  (1) 
1.34926724

$$$$
