
     RDKit          3D

 27 27  0  0  0  0  0  0  0  0999 V2000
   43.7920   35.7460   41.7190 C   0  0  0  0  0  0  0  0  0  0  0  0
   43.4610   35.6300   43.1320 N   0  0  0  0  0  0  0  0  0  0  0  0
   44.8350   35.8240   44.1430 S   0  0  0  0  0  0  0  0  0  0  0  0
   46.0800   35.3070   43.4930 O   0  0  0  0  0  0  0  0  0  0  0  0
   44.9570   37.3080   44.4050 O   0  0  0  0  0  0  0  0  0  0  0  0
   44.5570   35.1020   45.6140 O   0  0  0  0  0  0  0  0  0  0  0  0
   45.3790   34.0150   45.8350 C   0  0  0  0  0  0  0  0  0  0  0  0
   43.4800   34.1530   40.9670 S   0  0  0  0  0  0  0  0  0  0  0  0
   40.9750   33.0270   41.3190 C   0  0  0  0  0  0  0  0  0  0  0  0
   41.7200   33.9640   40.6240 C   0  0  0  0  0  0  0  0  0  0  0  0
   41.1390   34.7750   39.6550 C   0  0  0  0  0  0  0  0  0  0  0  0
   39.8020   34.5890   39.4350 N   0  0  0  0  0  0  0  0  0  0  0  0
   39.1040   33.6730   40.1240 C   0  0  0  0  0  0  0  0  0  0  0  0
   39.6570   32.9060   41.0430 N   0  0  0  0  0  0  0  0  0  0  0  0
   37.7080   33.4400   39.9340 N   0  0  0  0  0  0  0  0  0  0  0  0
   43.1628   36.5149   41.2469 H   0  0  0  0  0  0  0  0  0  0  0  0
   44.8442   36.0390   41.5883 H   0  0  0  0  0  0  0  0  0  0  0  0
   42.7695   36.3552   43.3706 H   0  0  0  0  0  0  0  0  0  0  0  0
   46.7289   35.0375   44.1904 H   0  0  0  0  0  0  0  0  0  0  0  0
   44.9704   37.4707   45.3814 H   0  0  0  0  0  0  0  0  0  0  0  0
   45.4972   33.8587   46.9174 H   0  0  0  0  0  0  0  0  0  0  0  0
   44.9310   33.1184   45.3818 H   0  0  0  0  0  0  0  0  0  0  0  0
   46.3638   34.2018   45.3818 H   0  0  0  0  0  0  0  0  0  0  0  0
   41.4472   32.3917   42.0828 H   0  0  0  0  0  0  0  0  0  0  0  0
   41.7215   35.5232   39.0974 H   0  0  0  0  0  0  0  0  0  0  0  0
   37.2249   32.7223   40.4930 H   0  0  0  0  0  0  0  0  0  0  0  0
   37.1842   33.9896   39.2380 H   0  0  0  0  0  0  0  0  0  0  0  0
  1  2  1  0
  2  3  1  0
  3  5  1  0
  3  6  1  0
  4  3  1  0
  6  7  1  0
  8  1  1  0
 10  8  1  0
 10  9  2  0
 11 10  1  0
 12 11  2  0
 12 13  1  0
 13 14  2  0
 14  9  1  0
 15 13  1  0
  1 16  1  0
  1 17  1  0
  2 18  1  0
  4 19  1  0
  5 20  1  0
  7 21  1  0
  7 22  1  0
  7 23  1  0
  9 24  1  0
 11 25  1  0
 15 26  1  0
 15 27  1  0
M  ISO  8  16   8  17   8  18   5  19   3  20   3  21   8  22   8  23   8
M  ISO  2  24  14  25  14
M  END
>  <minimizedAffinity>  (1) 
-4.45858812

>  <minimizedRMSD>  (1) 
0.568729281

$$$$
