
     RDKit          3D

 25 26  0  0  0  0  0  0  0  0999 V2000
   46.9380   32.0340   45.3220 C   0  0  0  0  0  0  0  0  0  0  0  0
   46.7370   32.6660   44.1210 C   0  0  0  0  0  0  0  0  0  0  0  0
   47.1930   32.1000   42.9500 C   0  0  0  0  0  0  0  0  0  0  0  0
   47.8560   30.8800   43.0240 C   0  0  0  0  0  0  0  0  0  0  0  0
   48.0700   30.2240   44.2260 C   0  0  0  0  0  0  0  0  0  0  0  0
   47.5960   30.8230   45.3970 C   0  0  0  0  0  0  0  0  0  0  0  0
   45.5100   36.0870   43.2430 C   0  0  0  0  0  0  0  0  0  0  0  0
   46.1830   34.8720   43.1790 C   0  0  0  0  0  0  0  0  0  0  0  0
   46.0270   33.9370   44.1900 C   0  0  0  0  0  0  0  0  0  0  0  0
   45.1970   34.2950   45.2030 N   0  0  0  0  0  0  0  0  0  0  0  0
   44.5480   35.4720   45.2600 C   0  0  0  0  0  0  0  0  0  0  0  0
   44.6910   36.3860   44.2890 N   0  0  0  0  0  0  0  0  0  0  0  0
   47.0260   34.6230   42.0340 C   0  0  0  0  0  0  0  0  0  0  0  0
   47.9870   35.4250   41.8380 O   0  0  0  0  0  0  0  0  0  0  0  0
   46.3930   32.6730   46.8520 S   0  0  0  0  0  0  0  0  0  0  0  0
   45.3560   31.7790   47.4530 O   0  0  0  0  0  0  0  0  0  0  0  0
   47.6000   32.6420   47.7660 O   0  0  0  0  0  0  0  0  0  0  0  0
   47.0366   32.6000   41.9828 H   0  0  0  0  0  0  0  0  0  0  0  0
   48.2238   30.4191   42.0954 H   0  0  0  0  0  0  0  0  0  0  0  0
   48.5978   29.2594   44.2578 H   0  0  0  0  0  0  0  0  0  0  0  0
   47.7463   30.3331   46.3703 H   0  0  0  0  0  0  0  0  0  0  0  0
   45.6416   36.8203   42.4337 H   0  0  0  0  0  0  0  0  0  0  0  0
   43.8907   35.6878   46.1152 H   0  0  0  0  0  0  0  0  0  0  0  0
   46.8419   33.7731   41.3603 H   0  0  0  0  0  0  0  0  0  0  0  0
   45.8638   33.9260   46.6880 H   0  0  0  0  0  0  0  0  0  0  0  0
  1  6  2  0
  1 15  1  0
  2  9  1  0
  2  1  1  0
  3  4  1  0
  3  2  2  0
  4  5  2  0
  5  6  1  0
  7 12  2  0
  8  7  1  0
  8  9  2  0
  9 10  1  0
 10 11  2  0
 12 11  1  0
 13  8  1  0
 14 13  2  0
 15 16  2  0
 15 17  2  0
  3 18  1  0
  4 19  1  0
  5 20  1  0
  6 21  1  0
  7 22  1  0
 11 23  1  0
 13 24  1  0
 15 25  1  0
M  ISO  8  18  14  19  14  20  14  21  14  22  14  23  14  24   6  25  11
M  END
>  <minimizedAffinity>  (1) 
-4.4678359

>  <minimizedRMSD>  (1) 
0.703916013

$$$$
