
     RDKit          3D

 28 30  0  0  0  0  0  0  0  0999 V2000
   45.8420   35.8610   43.0510 C   0  0  0  0  0  0  0  0  0  0  0  0
   46.3440   34.5620   43.2290 C   0  0  0  0  0  0  0  0  0  0  0  0
   45.9050   33.8040   44.3080 C   0  0  0  0  0  0  0  0  0  0  0  0
   44.9900   34.3760   45.1540 N   0  0  0  0  0  0  0  0  0  0  0  0
   44.5180   35.6290   44.9670 C   0  0  0  0  0  0  0  0  0  0  0  0
   44.9490   36.3630   43.9160 N   0  0  0  0  0  0  0  0  0  0  0  0
   46.4150   32.4610   44.5140 C   0  0  0  0  0  0  0  0  0  0  0  0
   46.4690   31.5050   43.5250 C   0  0  0  0  0  0  0  0  0  0  0  0
   46.9410   30.2160   43.6690 C   0  0  0  0  0  0  0  0  0  0  0  0
   47.4050   29.8430   44.9190 C   0  0  0  0  0  0  0  0  0  0  0  0
   47.3860   30.7400   45.9690 C   0  0  0  0  0  0  0  0  0  0  0  0
   47.8590   30.2970   47.1660 C   0  0  0  0  0  0  0  0  0  0  0  0
   47.8590   31.1660   48.2490 C   0  0  0  0  0  0  0  0  0  0  0  0
   47.3760   32.4490   48.0560 C   0  0  0  0  0  0  0  0  0  0  0  0
   46.9020   32.8660   46.8220 C   0  0  0  0  0  0  0  0  0  0  0  0
   46.8980   32.0150   45.7490 C   0  0  0  0  0  0  0  0  0  0  0  0
   47.3030   34.0470   42.2910 C   0  0  0  0  0  0  0  0  0  0  0  0
   47.6430   34.7670   41.3310 O   0  0  0  0  0  0  0  0  0  0  0  0
   46.1823   36.4686   42.1995 H   0  0  0  0  0  0  0  0  0  0  0  0
   43.7840   36.0512   45.6691 H   0  0  0  0  0  0  0  0  0  0  0  0
   46.1026   31.7948   42.5291 H   0  0  0  0  0  0  0  0  0  0  0  0
   46.9482   29.5124   42.8235 H   0  0  0  0  0  0  0  0  0  0  0  0
   47.7914   28.8253   45.0769 H   0  0  0  0  0  0  0  0  0  0  0  0
   48.2346   29.2687   47.2735 H   0  0  0  0  0  0  0  0  0  0  0  0
   48.2322   30.8441   49.2324 H   0  0  0  0  0  0  0  0  0  0  0  0
   47.3682   33.1533   48.9009 H   0  0  0  0  0  0  0  0  0  0  0  0
   46.5247   33.8924   46.7032 H   0  0  0  0  0  0  0  0  0  0  0  0
   47.7278   33.0402   42.4168 H   0  0  0  0  0  0  0  0  0  0  0  0
  1  2  2  0
  1  6  1  0
  2  3  1  0
  3  7  1  0
  3  4  2  0
  5  4  1  0
  6  5  2  0
  7 16  2  0
  8  9  2  0
  8  7  1  0
  9 10  1  0
 10 11  2  0
 11 12  1  0
 12 13  2  0
 14 13  1  0
 15 14  2  0
 16 11  1  0
 16 15  1  0
 17  2  1  0
 18 17  2  0
  1 19  1  0
  5 20  1  0
  8 21  1  0
  9 22  1  0
 10 23  1  0
 12 24  1  0
 13 25  1  0
 14 26  1  0
 15 27  1  0
 17 28  1  0
M  ISO  8  19  14  20  14  21  14  22  14  23  14  24  14  25  14  26  14
M  ISO  2  27  14  28   6
M  END
>  <minimizedAffinity>  (1) 
-4.71635914

>  <minimizedRMSD>  (1) 
1.28244102

$$$$
