
     RDKit          3D

 29 29  0  0  0  0  0  0  0  0999 V2000
   43.4840   35.5250   41.7490 C   0  0  0  0  0  0  0  0  0  0  0  0
   43.2720   35.6880   43.1810 N   0  0  0  0  0  0  0  0  0  0  0  0
   44.7510   35.9350   44.0150 S   0  0  0  0  0  0  0  0  0  0  0  0
   45.9310   35.3890   43.2680 O   0  0  0  0  0  0  0  0  0  0  0  0
   44.9070   37.4400   44.1610 O   0  0  0  0  0  0  0  0  0  0  0  0
   44.6460   35.2960   45.5440 O   0  0  0  0  0  0  0  0  0  0  0  0
   45.3590   34.1320   45.6870 C   0  0  0  0  0  0  0  0  0  0  0  0
   43.1550   33.8080   41.3360 S   0  0  0  0  0  0  0  0  0  0  0  0
   40.3980   33.7060   41.1680 C   0  0  0  0  0  0  0  0  0  0  0  0
   41.5940   33.6990   40.4580 C   0  0  0  0  0  0  0  0  0  0  0  0
   41.5930   33.6080   39.0740 C   0  0  0  0  0  0  0  0  0  0  0  0
   40.3800   33.5280   38.4630 N   0  0  0  0  0  0  0  0  0  0  0  0
   39.2310   33.5360   39.1680 C   0  0  0  0  0  0  0  0  0  0  0  0
   39.2160   33.6230   40.5020 N   0  0  0  0  0  0  0  0  0  0  0  0
   37.9910   33.4550   38.5510 O   0  0  0  0  0  0  0  0  0  0  0  0
   37.8330   33.2580   37.1580 C   0  0  0  0  0  0  0  0  0  0  0  0
   42.7990   36.1815   41.1924 H   0  0  0  0  0  0  0  0  0  0  0  0
   44.5165   35.7932   41.4809 H   0  0  0  0  0  0  0  0  0  0  0  0
   42.6601   36.5016   43.3377 H   0  0  0  0  0  0  0  0  0  0  0  0
   46.6127   35.0736   43.9129 H   0  0  0  0  0  0  0  0  0  0  0  0
   44.9316   37.6775   45.1218 H   0  0  0  0  0  0  0  0  0  0  0  0
   45.4930   33.9132   46.7566 H   0  0  0  0  0  0  0  0  0  0  0  0
   44.8118   33.3058   45.2095 H   0  0  0  0  0  0  0  0  0  0  0  0
   46.3436   34.2441   45.2095 H   0  0  0  0  0  0  0  0  0  0  0  0
   40.4087   33.7785   42.2656 H   0  0  0  0  0  0  0  0  0  0  0  0
   42.5295   33.6008   38.4971 H   0  0  0  0  0  0  0  0  0  0  0  0
   37.1536   32.4109   36.9822 H   0  0  0  0  0  0  0  0  0  0  0  0
   37.4107   34.1669   36.7047 H   0  0  0  0  0  0  0  0  0  0  0  0
   38.8119   33.0431   36.7047 H   0  0  0  0  0  0  0  0  0  0  0  0
  1  2  1  0
  2  3  1  0
  3  5  1  0
  3  6  1  0
  4  3  1  0
  6  7  1  0
  8  1  1  0
 10  9  2  0
 10  8  1  0
 11 10  1  0
 12 11  2  0
 12 13  1  0
 13 14  2  0
 14  9  1  0
 15 13  1  0
 16 15  1  0
  1 17  1  0
  1 18  1  0
  2 19  1  0
  4 20  1  0
  5 21  1  0
  7 22  1  0
  7 23  1  0
  7 24  1  0
  9 25  1  0
 11 26  1  0
 16 27  1  0
 16 28  1  0
 16 29  1  0
M  ISO  8  17   8  18   8  19   5  20   3  21   3  22   8  23   8  24   8
M  ISO  5  25  14  26  14  27   8  28   8  29   8
M  END
>  <minimizedAffinity>  (1) 
-4.50337458

>  <minimizedRMSD>  (1) 
1.02691507

$$$$
