
     RDKit          3D

 22 23  0  0  0  0  0  0  0  0999 V2000
   45.3250   36.1650   43.1530 C   0  0  0  0  0  0  0  0  0  0  0  0
   45.9160   34.9290   42.9110 C   0  0  0  0  0  0  0  0  0  0  0  0
   45.8360   33.9740   43.9090 C   0  0  0  0  0  0  0  0  0  0  0  0
   45.1870   34.2950   45.0700 N   0  0  0  0  0  0  0  0  0  0  0  0
   44.6240   35.5080   45.2740 C   0  0  0  0  0  0  0  0  0  0  0  0
   44.6910   36.4510   44.3140 N   0  0  0  0  0  0  0  0  0  0  0  0
   44.1850   31.9810   43.0620 F   0  0  0  0  0  0  0  0  0  0  0  0
   45.5140   31.7220   43.2990 C   0  0  0  0  0  0  0  0  0  0  0  0
   46.4350   32.6550   43.7280 C   0  0  0  0  0  0  0  0  0  0  0  0
   47.7370   32.2420   43.9200 C   0  0  0  0  0  0  0  0  0  0  0  0
   48.0600   30.9260   43.6770 C   0  0  0  0  0  0  0  0  0  0  0  0
   47.1350   29.9980   43.2480 C   0  0  0  0  0  0  0  0  0  0  0  0
   45.8200   30.4080   43.0520 C   0  0  0  0  0  0  0  0  0  0  0  0
   46.5670   34.6910   41.6660 C   0  0  0  0  0  0  0  0  0  0  0  0
   47.7530   35.1200   41.5280 O   0  0  0  0  0  0  0  0  0  0  0  0
   45.3748   36.9381   42.3721 H   0  0  0  0  0  0  0  0  0  0  0  0
   44.1118   35.7243   46.2231 H   0  0  0  0  0  0  0  0  0  0  0  0
   48.5044   32.9523   44.2616 H   0  0  0  0  0  0  0  0  0  0  0  0
   49.0996   30.6013   43.8316 H   0  0  0  0  0  0  0  0  0  0  0  0
   47.4307   28.9545   43.0644 H   0  0  0  0  0  0  0  0  0  0  0  0
   45.0501   29.7007   42.7098 H   0  0  0  0  0  0  0  0  0  0  0  0
   46.0585   34.1535   40.8521 H   0  0  0  0  0  0  0  0  0  0  0  0
  1  6  2  0
  2  1  1  0
  2  3  2  0
  3  4  1  0
  4  5  2  0
  6  5  1  0
  7  8  1  0
  8  9  2  0
  9  3  1  0
  9 10  1  0
 11 10  2  0
 12 11  1  0
 13 12  2  0
 13  8  1  0
 14  2  1  0
 15 14  2  0
  1 16  1  0
  5 17  1  0
 10 18  1  0
 11 19  1  0
 12 20  1  0
 13 21  1  0
 14 22  1  0
M  ISO  7  16  14  17  14  18  14  19  14  20  14  21  14  22   6
M  END
>  <minimizedAffinity>  (1) 
-3.78203392

>  <minimizedRMSD>  (1) 
0.85849756

$$$$
