
     RDKit          3D

 15 15  0  0  0  0  0  0  0  0999 V2000
   45.3230   36.0050   43.2640 C   0  0  0  0  0  0  0  0  0  0  0  0
   46.1580   34.8970   43.1440 C   0  0  0  0  0  0  0  0  0  0  0  0
   46.1990   34.0010   44.1990 C   0  0  0  0  0  0  0  0  0  0  0  0
   45.4390   34.2260   45.2990 N   0  0  0  0  0  0  0  0  0  0  0  0
   44.6350   35.3110   45.3920 C   0  0  0  0  0  0  0  0  0  0  0  0
   44.5820   36.1950   44.3710 N   0  0  0  0  0  0  0  0  0  0  0  0
   47.1020   32.8290   44.0380 C   0  0  0  0  0  0  0  0  0  0  0  0
   46.6050   32.0670   43.0110 F   0  0  0  0  0  0  0  0  0  0  0  0
   48.3660   33.2620   43.6830 F   0  0  0  0  0  0  0  0  0  0  0  0
   47.1250   32.1330   45.2360 F   0  0  0  0  0  0  0  0  0  0  0  0
   46.9510   34.6910   41.9620 C   0  0  0  0  0  0  0  0  0  0  0  0
   47.8850   35.4910   41.7350 O   0  0  0  0  0  0  0  0  0  0  0  0
   45.2685   36.7348   42.4427 H   0  0  0  0  0  0  0  0  0  0  0  0
   44.0274   35.4725   46.2946 H   0  0  0  0  0  0  0  0  0  0  0  0
   46.7423   33.8550   41.2783 H   0  0  0  0  0  0  0  0  0  0  0  0
  1  6  2  0
  2  1  1  0
  2  3  2  0
  3  4  1  0
  4  5  2  0
  6  5  1  0
  7  3  1  0
  7 10  1  0
  8  7  1  0
  9  7  1  0
 11  2  1  0
 12 11  2  0
  1 13  1  0
  5 14  1  0
 11 15  1  0
M  ISO  3  13  14  14  14  15   6
M  END
>  <minimizedAffinity>  (1) 
-3.69985533

>  <minimizedRMSD>  (1) 
0.419843078

$$$$
