
     RDKit          3D

 18 18  0  0  0  0  0  0  0  0999 V2000
   45.3160   36.0270   43.2430 C   0  0  0  0  0  0  0  0  0  0  0  0
   46.1690   34.9330   43.1230 C   0  0  0  0  0  0  0  0  0  0  0  0
   46.2210   34.0280   44.1740 C   0  0  0  0  0  0  0  0  0  0  0  0
   45.4410   34.2470   45.2740 N   0  0  0  0  0  0  0  0  0  0  0  0
   44.6160   35.3270   45.3650 C   0  0  0  0  0  0  0  0  0  0  0  0
   44.5610   36.2060   44.3500 N   0  0  0  0  0  0  0  0  0  0  0  0
   46.9650   34.7390   41.9610 C   0  0  0  0  0  0  0  0  0  0  0  0
   47.9780   35.4430   41.7980 O   0  0  0  0  0  0  0  0  0  0  0  0
   47.1220   32.8480   44.0790 C   0  0  0  0  0  0  0  0  0  0  0  0
   46.9770   32.0070   45.3370 C   0  0  0  0  0  0  0  0  0  0  0  0
   45.2555   36.7579   42.4232 H   0  0  0  0  0  0  0  0  0  0  0  0
   43.9991   35.4786   46.2630 H   0  0  0  0  0  0  0  0  0  0  0  0
   46.6893   33.9774   41.2167 H   0  0  0  0  0  0  0  0  0  0  0  0
   46.8484   32.2458   43.2001 H   0  0  0  0  0  0  0  0  0  0  0  0
   48.1641   33.1854   43.9776 H   0  0  0  0  0  0  0  0  0  0  0  0
   47.0878   32.6499   46.2226 H   0  0  0  0  0  0  0  0  0  0  0  0
   45.9840   31.5339   45.3493 H   0  0  0  0  0  0  0  0  0  0  0  0
   47.7542   31.2287   45.3493 H   0  0  0  0  0  0  0  0  0  0  0  0
  1  6  2  0
  2  1  1  0
  2  3  2  0
  3  4  1  0
  4  5  2  0
  6  5  1  0
  7  2  1  0
  8  7  2  0
  9  3  1  0
  9 10  1  0
  1 11  1  0
  5 12  1  0
  7 13  1  0
  9 14  1  0
  9 15  1  0
 10 16  1  0
 10 17  1  0
 10 18  1  0
M  ISO  8  11  14  12  14  13   6  14   8  15   8  16   8  17   8  18   8
M  END
>  <minimizedAffinity>  (1) 
-3.42598104

>  <minimizedRMSD>  (1) 
0.838337779

$$$$
