
     RDKit          3D

 14 14  0  0  0  0  0  0  0  0999 V2000
   45.1670   35.9550   43.3380 C   0  0  0  0  0  0  0  0  0  0  0  0
   46.1170   34.9570   43.1020 C   0  0  0  0  0  0  0  0  0  0  0  0
   46.3370   34.0310   44.1090 C   0  0  0  0  0  0  0  0  0  0  0  0
   45.6360   34.1270   45.2660 N   0  0  0  0  0  0  0  0  0  0  0  0
   44.7140   35.1150   45.4650 C   0  0  0  0  0  0  0  0  0  0  0  0
   44.4870   36.0180   44.5040 N   0  0  0  0  0  0  0  0  0  0  0  0
   46.8220   34.9100   41.8650 C   0  0  0  0  0  0  0  0  0  0  0  0
   48.0130   35.2760   41.8310 O   0  0  0  0  0  0  0  0  0  0  0  0
   47.2940   32.9780   43.9460 N   0  0  0  0  0  0  0  0  0  0  0  0
   44.9688   36.7049   42.5580 H   0  0  0  0  0  0  0  0  0  0  0  0
   44.1592   35.1682   46.4134 H   0  0  0  0  0  0  0  0  0  0  0  0
   46.3218   34.5553   40.9517 H   0  0  0  0  0  0  0  0  0  0  0  0
   47.4455   32.2978   44.7045 H   0  0  0  0  0  0  0  0  0  0  0  0
   47.8308   32.9009   43.0703 H   0  0  0  0  0  0  0  0  0  0  0  0
  1  6  2  0
  2  1  1  0
  2  3  2  0
  3  4  1  0
  4  5  2  0
  6  5  1  0
  7  2  1  0
  8  7  2  0
  9  3  1  0
  1 10  1  0
  5 11  1  0
  7 12  1  0
  9 13  1  0
  9 14  1  0
M  ISO  3  10  14  11  14  12   6
M  END
>  <minimizedAffinity>  (1) 
-3.2737689

>  <minimizedRMSD>  (1) 
0.116874881

$$$$
