
     RDKit          3D

 19 20  0  0  0  0  0  0  0  0999 V2000
   45.3130   36.1510   43.1500 C   0  0  0  0  0  0  0  0  0  0  0  0
   45.9310   34.9260   42.9080 C   0  0  0  0  0  0  0  0  0  0  0  0
   45.8710   33.9710   43.9090 C   0  0  0  0  0  0  0  0  0  0  0  0
   45.2300   34.2410   45.0730 N   0  0  0  0  0  0  0  0  0  0  0  0
   44.6330   35.4550   45.2790 C   0  0  0  0  0  0  0  0  0  0  0  0
   44.6770   36.4040   44.3180 N   0  0  0  0  0  0  0  0  0  0  0  0
   46.4920   32.6650   43.7340 C   0  0  0  0  0  0  0  0  0  0  0  0
   45.8710   31.5030   43.3270 C   0  0  0  0  0  0  0  0  0  0  0  0
   46.8690   30.5390   43.3140 C   0  0  0  0  0  0  0  0  0  0  0  0
   48.0290   31.1190   43.6970 N   0  0  0  0  0  0  0  0  0  0  0  0
   47.7880   32.4140   43.9510 N   0  0  0  0  0  0  0  0  0  0  0  0
   46.5920   34.6890   41.6700 C   0  0  0  0  0  0  0  0  0  0  0  0
   47.7560   35.1280   41.5260 O   0  0  0  0  0  0  0  0  0  0  0  0
   45.3425   36.9304   42.3743 H   0  0  0  0  0  0  0  0  0  0  0  0
   44.1164   35.6587   46.2285 H   0  0  0  0  0  0  0  0  0  0  0  0
   44.8104   31.3688   43.0678 H   0  0  0  0  0  0  0  0  0  0  0  0
   46.7386   29.4820   43.0388 H   0  0  0  0  0  0  0  0  0  0  0  0
   48.9410   30.6474   43.7795 H   0  0  0  0  0  0  0  0  0  0  0  0
   46.0936   34.1348   40.8610 H   0  0  0  0  0  0  0  0  0  0  0  0
  1  6  2  0
  2  1  1  0
  2  3  2  0
  3  4  1  0
  4  5  2  0
  6  5  1  0
  7  3  1  0
  7 11  2  0
  8  7  1  0
  9  8  2  0
  9 10  1  0
 10 11  1  0
 12  2  1  0
 13 12  2  0
  1 14  1  0
  5 15  1  0
  8 16  1  0
  9 17  1  0
 10 18  1  0
 12 19  1  0
M  ISO  6  14  14  15  14  16  14  17  14  18   9  19   6
M  END
>  <minimizedAffinity>  (1) 
-3.47070789

>  <minimizedRMSD>  (1) 
0.757981181

$$$$
