
     RDKit          3D

 41 45  0  0  1  0  0  0  0  0999 V2000
   46.9070   34.5510   41.9250 C   0  0  0  0  0  0  0  0  0  0  0  0
   48.0120   35.2090   41.8740 O   0  0  0  0  0  0  0  0  0  0  0  0
   43.7850   32.0180   38.4330 C   0  0  0  0  0  0  0  0  0  0  0  0
   44.8430   32.6970   38.0960 C   0  0  0  0  0  0  0  0  0  0  0  0
   45.6860   33.3700   39.0230 N   0  0  0  0  0  0  0  0  0  0  0  0
   46.9400   33.8380   39.5110 C   0  0  2  0  0  0  0  0  0  0  0  0
   47.9530   34.2670   38.9030 O   0  0  0  0  0  0  0  0  0  0  0  0
   46.4440   33.5750   40.8580 C   0  0  2  0  0  0  0  0  0  0  0  0
   45.1410   33.9970   40.2050 C   0  0  1  0  0  0  0  0  0  0  0  0
   43.7610   33.1470   40.9300 S   0  0  0  0  0  0  0  0  0  0  0  0
   43.3030   31.8390   39.7990 C   0  0  0  0  0  0  0  0  0  0  0  0
   43.0880   31.4220   37.2820 C   0  0  0  0  0  0  0  0  0  0  0  0
   45.1910   32.7800   36.6820 C   0  0  0  0  0  0  0  0  0  0  0  0
   46.3380   32.4870   36.1980 O   0  0  0  0  0  0  0  0  0  0  0  0
   45.2850   32.9340   35.3250 O   0  0  0  0  0  0  0  0  0  0  0  0
   45.5170   36.0790   43.2350 C   0  0  0  0  0  0  0  0  0  0  0  0
   46.1360   34.8250   43.0760 C   0  0  0  0  0  0  0  0  0  0  0  0
   45.8920   33.9260   44.1190 C   0  0  0  0  0  0  0  0  0  0  0  0
   45.1260   34.2410   45.1780 N   0  0  0  0  0  0  0  0  0  0  0  0
   44.5510   35.4710   45.2770 C   0  0  0  0  0  0  0  0  0  0  0  0
   44.7510   36.3840   44.3020 N   0  0  0  0  0  0  0  0  0  0  0  0
   46.4730   32.6650   44.0510 C   0  0  0  0  0  0  0  0  0  0  0  0
   47.7540   32.1740   44.1410 C   0  0  0  0  0  0  0  0  0  0  0  0
   48.0860   30.9120   44.0390 C   0  0  0  0  0  0  0  0  0  0  0  0
   47.0410   30.0370   43.8250 C   0  0  0  0  0  0  0  0  0  0  0  0
   45.5630   31.1690   43.7850 S   0  0  0  0  0  0  0  0  0  0  0  0
   47.4168   33.7364   42.4604 H   0  0  0  0  0  0  0  0  0  0  0  0
   48.3271   35.3966   42.7936 H   0  0  0  0  0  0  0  0  0  0  0  0
   48.6347   34.5557   39.5603 H   0  0  0  0  0  0  0  0  0  0  0  0
   46.6255   32.6410   41.4099 H   0  0  0  0  0  0  0  0  0  0  0  0
   42.2050   31.7798   39.7700 H   0  0  0  0  0  0  0  0  0  0  0  0
   43.7758   30.9208   40.1777 H   0  0  0  0  0  0  0  0  0  0  0  0
   42.2979   30.7464   37.6415 H   0  0  0  0  0  0  0  0  0  0  0  0
   42.6389   32.2197   36.6721 H   0  0  0  0  0  0  0  0  0  0  0  0
   43.8063   30.8545   36.6721 H   0  0  0  0  0  0  0  0  0  0  0  0
   46.1365   32.7327   34.8618 H   0  0  0  0  0  0  0  0  0  0  0  0
   45.6642   36.8420   42.4564 H   0  0  0  0  0  0  0  0  0  0  0  0
   43.9262   35.7202   46.1473 H   0  0  0  0  0  0  0  0  0  0  0  0
   48.5636   32.8987   44.3122 H   0  0  0  0  0  0  0  0  0  0  0  0
   49.1290   30.5717   44.1186 H   0  0  0  0  0  0  0  0  0  0  0  0
   47.0729   28.9438   43.7074 H   0  0  0  0  0  0  0  0  0  0  0  0
  1  2  1  0
  1 17  1  0
  3 11  1  0
  4  3  2  0
  4  5  1  0
  5  6  1  0
  5  9  1  0
  6  7  1  6
  6  9  1  0
  6  8  1  0
  8  1  1  0
  9  8  1  0
  9 10  1  1
 11 10  1  0
 12  3  1  0
 13  4  1  0
 14 13  2  0
 15 13  1  0
 16 21  2  0
 17 16  1  0
 17 18  2  0
 18 19  1  0
 19 20  2  0
 21 20  1  0
 22 18  1  0
 22 23  2  0
 24 23  1  0
 25 24  2  0
 26 25  1  0
 26 22  1  0
  1 27  1  0
  2 28  1  0
  7 29  1  0
  8 30  1  1
 11 31  1  0
 11 32  1  0
 12 33  1  0
 12 34  1  0
 12 35  1  0
 15 36  1  0
 16 37  1  0
 20 38  1  0
 23 39  1  0
 24 40  1  0
 25 41  1  0
M  ISO  8  27   8  28   3  29   3  30  13  31  13  32  13  33   8  34   8
M  ISO  7  35   8  36   3  37  14  38  14  39  14  40  14  41  14
M  END
>  <minimizedAffinity>  (1) 
-5.31992674

>  <minimizedRMSD>  (1) 
0.61644727

$$$$
