
     RDKit          3D

 26 28  0  0  0  0  0  0  0  0999 V2000
   45.1410   36.1290   43.4750 C   0  0  0  0  0  0  0  0  0  0  0  0
   45.7660   34.9110   43.1370 C   0  0  0  0  0  0  0  0  0  0  0  0
   45.7610   33.9480   44.1460 C   0  0  0  0  0  0  0  0  0  0  0  0
   45.2040   34.1650   45.3450 N   0  0  0  0  0  0  0  0  0  0  0  0
   44.6090   35.3640   45.6260 C   0  0  0  0  0  0  0  0  0  0  0  0
   44.5840   36.3360   44.6830 N   0  0  0  0  0  0  0  0  0  0  0  0
   46.3650   32.7200   43.8860 C   0  0  0  0  0  0  0  0  0  0  0  0
   47.6510   32.2350   43.9510 C   0  0  0  0  0  0  0  0  0  0  0  0
   47.9890   30.9910   43.6370 C   0  0  0  0  0  0  0  0  0  0  0  0
   46.9560   30.1950   43.2370 C   0  0  0  0  0  0  0  0  0  0  0  0
   45.4670   31.2820   43.3190 S   0  0  0  0  0  0  0  0  0  0  0  0
   46.3160   34.7370   41.8460 C   0  0  0  0  0  0  0  0  0  0  0  0
   47.5180   35.1280   41.7070 O   0  0  0  0  0  0  0  0  0  0  0  0
   45.4880   34.1330   40.7390 C   0  0  0  0  0  0  0  0  0  0  0  0
   44.2030   34.2160   40.5360 C   0  0  0  0  0  0  0  0  0  0  0  0
   43.6310   33.5890   39.4610 C   0  0  0  0  0  0  0  0  0  0  0  0
   44.5290   32.8680   38.6180 C   0  0  0  0  0  0  0  0  0  0  0  0
   46.1920   33.1670   39.4840 S   0  0  0  0  0  0  0  0  0  0  0  0
   45.1075   36.9356   42.7279 H   0  0  0  0  0  0  0  0  0  0  0  0
   44.1534   35.5379   46.6120 H   0  0  0  0  0  0  0  0  0  0  0  0
   48.4459   32.9191   44.2829 H   0  0  0  0  0  0  0  0  0  0  0  0
   49.0259   30.6283   43.6950 H   0  0  0  0  0  0  0  0  0  0  0  0
   47.0007   29.1388   42.9329 H   0  0  0  0  0  0  0  0  0  0  0  0
   43.5751   34.7923   41.2314 H   0  0  0  0  0  0  0  0  0  0  0  0
   42.5505   33.6379   39.2606 H   0  0  0  0  0  0  0  0  0  0  0  0
   44.3142   32.2910   37.7065 H   0  0  0  0  0  0  0  0  0  0  0  0
  1  6  2  0
  2  1  1  0
  2  3  2  0
  3  4  1  0
  4  5  2  0
  6  5  1  0
  7  8  2  0
  7  3  1  0
  9  8  1  0
 10 11  1  0
 10  9  2  0
 11  7  1  0
 12  2  1  0
 13 12  2  0
 14 12  1  0
 15 14  2  0
 16 15  1  0
 17 16  2  0
 17 18  1  0
 18 14  1  0
  1 19  1  0
  5 20  1  0
  8 21  1  0
  9 22  1  0
 10 23  1  0
 15 24  1  0
 16 25  1  0
 17 26  1  0
M  ISO  8  19  14  20  14  21  14  22  14  23  14  24  14  25  14  26  14
M  END
>  <minimizedAffinity>  (1) 
-4.29095984

>  <minimizedRMSD>  (1) 
1.22918499

$$$$
