
     RDKit          3D

 26 27  0  0  0  0  0  0  0  0999 V2000
   45.0980   36.1350   43.5320 C   0  0  0  0  0  0  0  0  0  0  0  0
   45.7660   34.9620   43.1250 C   0  0  0  0  0  0  0  0  0  0  0  0
   45.8210   33.9570   44.0830 C   0  0  0  0  0  0  0  0  0  0  0  0
   45.2760   34.0940   45.3110 N   0  0  0  0  0  0  0  0  0  0  0  0
   44.6410   35.2520   45.6540 C   0  0  0  0  0  0  0  0  0  0  0  0
   44.5570   36.2650   44.7600 N   0  0  0  0  0  0  0  0  0  0  0  0
   46.4610   32.7610   43.7630 C   0  0  0  0  0  0  0  0  0  0  0  0
   47.7710   32.3330   43.7770 C   0  0  0  0  0  0  0  0  0  0  0  0
   48.1430   31.1160   43.4100 C   0  0  0  0  0  0  0  0  0  0  0  0
   47.1380   30.2640   43.0010 C   0  0  0  0  0  0  0  0  0  0  0  0
   45.6130   31.3040   43.1690 S   0  0  0  0  0  0  0  0  0  0  0  0
   46.3070   34.8650   41.8220 C   0  0  0  0  0  0  0  0  0  0  0  0
   47.5440   35.1720   41.7270 O   0  0  0  0  0  0  0  0  0  0  0  0
   45.1180   34.4160   41.0450 C   0  0  0  0  0  0  0  0  0  0  0  0
   43.8990   34.7590   40.6900 C   0  0  0  0  0  0  0  0  0  0  0  0
   43.1810   33.7870   39.8340 C   0  0  0  0  0  0  0  0  0  0  0  0
   45.0154   36.9725   42.8236 H   0  0  0  0  0  0  0  0  0  0  0  0
   44.1983   35.3621   46.6549 H   0  0  0  0  0  0  0  0  0  0  0  0
   48.5470   33.0380   44.1099 H   0  0  0  0  0  0  0  0  0  0  0  0
   49.1969   30.8014   43.4302 H   0  0  0  0  0  0  0  0  0  0  0  0
   47.2214   29.2219   42.6588 H   0  0  0  0  0  0  0  0  0  0  0  0
   45.3430   33.4332   40.6051 H   0  0  0  0  0  0  0  0  0  0  0  0
   43.4419   35.7074   41.0086 H   0  0  0  0  0  0  0  0  0  0  0  0
   42.6470   33.0642   40.4683 H   0  0  0  0  0  0  0  0  0  0  0  0
   42.4589   34.3211   39.1989 H   0  0  0  0  0  0  0  0  0  0  0  0
   43.9037   33.2538   39.1989 H   0  0  0  0  0  0  0  0  0  0  0  0
  1  6  2  0
  2  1  1  0
  2  3  2  0
  3  4  1  0
  4  5  2  0
  6  5  1  0
  7  8  2  0
  7  3  1  0
  9  8  1  0
 10 11  1  0
 10  9  2  0
 11  7  1  0
 12  2  1  0
 13 12  2  0
 14 12  1  0
 15 14  2  0
 16 15  1  0
  1 17  1  0
  5 18  1  0
  8 19  1  0
  9 20  1  0
 10 21  1  0
 14 22  1  0
 15 23  1  0
 16 24  1  0
 16 25  1  0
 16 26  1  0
M  ISO  8  17  14  18  14  19  14  20  14  21  14  24   8  25   8  26   8
M  END
>  <minimizedAffinity>  (1) 
-4.10561943

>  <minimizedRMSD>  (1) 
1.18671954

$$$$
