
     RDKit          3D

 20 21  0  0  0  0  0  0  0  0999 V2000
   45.2810   36.1780   43.2490 C   0  0  0  0  0  0  0  0  0  0  0  0
   45.9270   34.9770   42.9130 C   0  0  0  0  0  0  0  0  0  0  0  0
   45.8890   33.9880   43.8740 C   0  0  0  0  0  0  0  0  0  0  0  0
   45.2700   34.1650   45.0620 N   0  0  0  0  0  0  0  0  0  0  0  0
   44.6520   35.3510   45.3500 C   0  0  0  0  0  0  0  0  0  0  0  0
   44.6640   36.3470   44.4380 N   0  0  0  0  0  0  0  0  0  0  0  0
   46.5040   32.7650   43.6280 C   0  0  0  0  0  0  0  0  0  0  0  0
   47.7660   32.2750   43.8340 C   0  0  0  0  0  0  0  0  0  0  0  0
   48.1630   31.0520   43.5150 C   0  0  0  0  0  0  0  0  0  0  0  0
   47.2080   30.2580   42.9440 C   0  0  0  0  0  0  0  0  0  0  0  0
   45.7150   31.3550   42.8870 S   0  0  0  0  0  0  0  0  0  0  0  0
   46.5440   34.8410   41.6470 C   0  0  0  0  0  0  0  0  0  0  0  0
   47.7810   35.1520   41.5890 O   0  0  0  0  0  0  0  0  0  0  0  0
   45.7780   34.3830   40.5400 O   0  0  0  0  0  0  0  0  0  0  0  0
   45.2776   37.0043   42.5229 H   0  0  0  0  0  0  0  0  0  0  0  0
   44.1487   35.4924   46.3178 H   0  0  0  0  0  0  0  0  0  0  0  0
   48.5039   32.9458   44.2982 H   0  0  0  0  0  0  0  0  0  0  0  0
   49.1892   30.7001   43.6969 H   0  0  0  0  0  0  0  0  0  0  0  0
   47.3028   29.2173   42.6006 H   0  0  0  0  0  0  0  0  0  0  0  0
   46.2024   34.2852   39.6510 H   0  0  0  0  0  0  0  0  0  0  0  0
  1  6  2  0
  2  1  1  0
  2  3  2  0
  3  4  1  0
  4  5  2  0
  6  5  1  0
  7  8  2  0
  7  3  1  0
  9  8  1  0
 10  9  2  0
 11 10  1  0
 11  7  1  0
 12  2  1  0
 13 12  2  0
 14 12  1  0
  1 15  1  0
  5 16  1  0
  8 17  1  0
  9 18  1  0
 10 19  1  0
 14 20  1  0
M  ISO  6  15  14  16  14  17  14  18  14  19  14  20   3
M  END
>  <minimizedAffinity>  (1) 
-3.86897516

>  <minimizedRMSD>  (1) 
0.929291427

$$$$
