
     RDKit          3D

 43 45  0  0  0  0  0  0  0  0999 V2000
   44.6340   35.7550   44.7700 C   0  0  0  0  0  0  0  0  0  0  0  0
   44.1520   35.9820   43.4600 C   0  0  0  0  0  0  0  0  0  0  0  0
   44.2880   34.9450   42.5580 C   0  0  0  0  0  0  0  0  0  0  0  0
   44.8560   33.7910   42.9490 N   0  0  0  0  0  0  0  0  0  0  0  0
   45.2980   33.6330   44.2170 C   0  0  0  0  0  0  0  0  0  0  0  0
   45.1980   34.5780   45.1160 N   0  0  0  0  0  0  0  0  0  0  0  0
   45.9110   32.3300   44.5600 C   0  0  0  0  0  0  0  0  0  0  0  0
   46.7100   32.4880   45.8230 C   0  0  0  0  0  0  0  0  0  0  0  0
   46.1320   31.7700   46.9390 C   0  0  0  0  0  0  0  0  0  0  0  0
   45.3830   32.2670   47.9870 C   0  0  0  0  0  0  0  0  0  0  0  0
   44.8850   31.5100   48.9840 C   0  0  0  0  0  0  0  0  0  0  0  0
   45.1370   30.1500   48.9580 C   0  0  0  0  0  0  0  0  0  0  0  0
   45.8810   29.6370   47.9220 C   0  0  0  0  0  0  0  0  0  0  0  0
   46.3790   30.4340   46.9150 C   0  0  0  0  0  0  0  0  0  0  0  0
   48.4650   29.3400   46.3780 C   0  0  0  0  0  0  0  0  0  0  0  0
   49.3040   29.6780   47.3100 O   0  0  0  0  0  0  0  0  0  0  0  0
   47.1030   29.5860   46.0080 N   0  0  0  0  0  0  0  0  0  0  0  0
   43.7780   35.2000   41.1910 C   0  0  0  0  0  0  0  0  0  0  0  0
   42.2810   35.4880   41.1960 C   0  0  0  0  0  0  0  0  0  0  0  0
   41.8120   35.0390   39.8360 C   0  0  0  0  0  0  0  0  0  0  0  0
   42.2540   34.0170   39.0230 C   0  0  0  0  0  0  0  0  0  0  0  0
   41.5040   34.0150   37.8870 N   0  0  0  0  0  0  0  0  0  0  0  0
   40.6030   35.0180   37.9760 C   0  0  0  0  0  0  0  0  0  0  0  0
   40.8010   35.6270   39.1590 N   0  0  0  0  0  0  0  0  0  0  0  0
   44.5477   36.5531   45.5220 H   0  0  0  0  0  0  0  0  0  0  0  0
   43.6909   36.9386   43.1732 H   0  0  0  0  0  0  0  0  0  0  0  0
   45.1219   31.5791   44.7133 H   0  0  0  0  0  0  0  0  0  0  0  0
   46.5672   31.9988   43.7417 H   0  0  0  0  0  0  0  0  0  0  0  0
   47.7267   32.1068   45.6470 H   0  0  0  0  0  0  0  0  0  0  0  0
   46.7175   33.5571   46.0817 H   0  0  0  0  0  0  0  0  0  0  0  0
   45.1803   33.3479   48.0093 H   0  0  0  0  0  0  0  0  0  0  0  0
   44.2948   31.9605   49.7956 H   0  0  0  0  0  0  0  0  0  0  0  0
   44.7499   29.4924   49.7503 H   0  0  0  0  0  0  0  0  0  0  0  0
   46.0850   28.5564   47.8965 H   0  0  0  0  0  0  0  0  0  0  0  0
   48.9436   28.6615   45.6565 H   0  0  0  0  0  0  0  0  0  0  0  0
   46.6766   29.1870   45.1596 H   0  0  0  0  0  0  0  0  0  0  0  0
   43.9692   34.3142   40.5675 H   0  0  0  0  0  0  0  0  0  0  0  0
   44.2971   36.0825   40.7888 H   0  0  0  0  0  0  0  0  0  0  0  0
   41.7769   34.9177   41.9901 H   0  0  0  0  0  0  0  0  0  0  0  0
   42.0570   36.5474   41.3897 H   0  0  0  0  0  0  0  0  0  0  0  0
   43.0740   33.3209   39.2534 H   0  0  0  0  0  0  0  0  0  0  0  0
   41.6057   33.3622   37.0968 H   0  0  0  0  0  0  0  0  0  0  0  0
   39.8485   35.2864   37.2219 H   0  0  0  0  0  0  0  0  0  0  0  0
  1  6  2  0
  2  1  1  0
  3  4  1  0
  3  2  2  0
  4  5  2  0
  5  7  1  0
  5  6  1  0
  7  8  1  0
  8  9  1  0
  9 10  2  0
 10 11  1  0
 12 11  2  0
 13 12  1  0
 14  9  1  0
 14 13  2  0
 15 16  2  0
 17 15  1  0
 17 14  1  0
 18 19  1  0
 18  3  1  0
 20 19  1  0
 21 20  2  0
 22 23  1  0
 22 21  1  0
 23 24  2  0
 24 20  1  0
  1 25  1  0
  2 26  1  0
  7 27  1  0
  7 28  1  0
  8 29  1  0
  8 30  1  0
 10 31  1  0
 11 32  1  0
 12 33  1  0
 13 34  1  0
 15 35  1  0
 17 36  1  0
 18 37  1  0
 18 38  1  0
 19 39  1  0
 19 40  1  0
 21 41  1  0
 22 42  1  0
 23 43  1  0
M  ISO  8  25  14  26  14  27   8  28   8  29   8  30   8  31  14  32  14
M  ISO  8  33  14  34  14  35   6  37   8  38   8  39   8  40   8  41  14
M  ISO  2  42   9  43  14
M  END
>  <minimizedAffinity>  (1) 
-5.62869501

>  <minimizedRMSD>  (1) 
0.686179578

$$$$
