
     RDKit          3D

 36 39  0  0  0  0  0  0  0  0999 V2000
   46.5770   34.7670   41.7510 C   0  0  0  0  0  0  0  0  0  0  0  0
   47.7820   35.1890   41.6990 O   0  0  0  0  0  0  0  0  0  0  0  0
   45.2810   36.1530   43.3060 C   0  0  0  0  0  0  0  0  0  0  0  0
   45.9270   34.9310   43.0060 C   0  0  0  0  0  0  0  0  0  0  0  0
   45.8630   33.9730   43.9960 C   0  0  0  0  0  0  0  0  0  0  0  0
   45.2310   34.1800   45.1680 N   0  0  0  0  0  0  0  0  0  0  0  0
   44.6210   35.3680   45.4220 C   0  0  0  0  0  0  0  0  0  0  0  0
   44.6490   36.3490   44.4890 N   0  0  0  0  0  0  0  0  0  0  0  0
   46.4850   32.7360   43.7740 C   0  0  0  0  0  0  0  0  0  0  0  0
   47.7580   32.2700   43.9250 C   0  0  0  0  0  0  0  0  0  0  0  0
   48.1250   31.0160   43.6470 C   0  0  0  0  0  0  0  0  0  0  0  0
   47.1090   30.1980   43.1840 C   0  0  0  0  0  0  0  0  0  0  0  0
   45.6380   31.2970   43.1710 S   0  0  0  0  0  0  0  0  0  0  0  0
   45.8430   34.1370   40.6070 C   0  0  0  0  0  0  0  0  0  0  0  0
   46.3790   33.6580   39.4430 C   0  0  0  0  0  0  0  0  0  0  0  0
   45.3330   33.1870   38.7490 N   0  0  0  0  0  0  0  0  0  0  0  0
   44.1940   33.3620   39.4430 C   0  0  0  0  0  0  0  0  0  0  0  0
   44.5290   33.9540   40.5940 N   0  0  0  0  0  0  0  0  0  0  0  0
   42.3110   35.5090   38.1590 Cl  0  0  0  0  0  0  0  0  0  0  0  0
   41.8890   33.8850   38.5950 C   0  0  0  0  0  0  0  0  0  0  0  0
   42.8100   33.0360   39.1520 C   0  0  0  0  0  0  0  0  0  0  0  0
   42.2920   31.7920   39.4280 C   0  0  0  0  0  0  0  0  0  0  0  0
   40.9950   31.4130   39.1830 C   0  0  0  0  0  0  0  0  0  0  0  0
   40.1060   32.2970   38.6230 C   0  0  0  0  0  0  0  0  0  0  0  0
   40.5800   33.5560   38.3280 C   0  0  0  0  0  0  0  0  0  0  0  0
   39.4370   34.6700   37.6150 Cl  0  0  0  0  0  0  0  0  0  0  0  0
   45.2917   36.9631   42.5620 H   0  0  0  0  0  0  0  0  0  0  0  0
   44.1072   35.5316   46.3808 H   0  0  0  0  0  0  0  0  0  0  0  0
   48.5251   32.9655   44.2963 H   0  0  0  0  0  0  0  0  0  0  0  0
   49.1577   30.6600   43.7764 H   0  0  0  0  0  0  0  0  0  0  0  0
   47.1687   29.1390   42.8925 H   0  0  0  0  0  0  0  0  0  0  0  0
   47.4371   33.6591   39.1422 H   0  0  0  0  0  0  0  0  0  0  0  0
   45.3930   32.7529   37.8169 H   0  0  0  0  0  0  0  0  0  0  0  0
   42.9652   31.0471   39.8773 H   0  0  0  0  0  0  0  0  0  0  0  0
   40.6661   30.3945   39.4371 H   0  0  0  0  0  0  0  0  0  0  0  0
   39.0631   32.0127   38.4193 H   0  0  0  0  0  0  0  0  0  0  0  0
  1  4  1  0
  2  1  2  0
  3  8  2  0
  4  3  1  0
  4  5  2  0
  5  6  1  0
  6  7  2  0
  8  7  1  0
  9 10  2  0
  9  5  1  0
 11 10  1  0
 12 11  2  0
 13 12  1  0
 13  9  1  0
 14  1  1  0
 15 14  2  0
 16 17  1  0
 16 15  1  0
 17 18  2  0
 18 14  1  0
 19 20  1  0
 20 21  2  0
 21 22  1  0
 21 17  1  0
 23 22  2  0
 24 23  1  0
 25 20  1  0
 25 24  2  0
 26 25  1  0
  3 27  1  0
  7 28  1  0
 10 29  1  0
 11 30  1  0
 12 31  1  0
 15 32  1  0
 16 33  1  0
 22 34  1  0
 23 35  1  0
 24 36  1  0
M  ISO  8  27  14  28  14  29  14  30  14  31  14  32  14  33   9  34  14
M  ISO  2  35  14  36  14
M  END
>  <minimizedAffinity>  (1) 
-5.80276728

>  <minimizedRMSD>  (1) 
3.31696391

$$$$
