
     RDKit          3D

 28 30  0  0  0  0  0  0  0  0999 V2000
   45.2270   36.1820   43.4950 C   0  0  0  0  0  0  0  0  0  0  0  0
   45.8680   34.9730   43.1690 C   0  0  0  0  0  0  0  0  0  0  0  0
   45.8080   33.9910   44.1440 C   0  0  0  0  0  0  0  0  0  0  0  0
   45.1830   34.1770   45.3150 N   0  0  0  0  0  0  0  0  0  0  0  0
   44.5760   35.3680   45.5850 C   0  0  0  0  0  0  0  0  0  0  0  0
   44.6030   36.3590   44.6720 N   0  0  0  0  0  0  0  0  0  0  0  0
   46.4280   32.7570   43.8930 C   0  0  0  0  0  0  0  0  0  0  0  0
   47.7000   32.2730   44.0130 C   0  0  0  0  0  0  0  0  0  0  0  0
   48.0390   31.0350   43.7010 C   0  0  0  0  0  0  0  0  0  0  0  0
   47.0430   30.2320   43.2390 C   0  0  0  0  0  0  0  0  0  0  0  0
   45.5680   31.3340   43.2680 S   0  0  0  0  0  0  0  0  0  0  0  0
   46.5140   34.8320   41.9090 C   0  0  0  0  0  0  0  0  0  0  0  0
   47.7130   35.2510   41.8590 O   0  0  0  0  0  0  0  0  0  0  0  0
   45.7850   34.2210   40.7470 C   0  0  0  0  0  0  0  0  0  0  0  0
   44.4290   34.3180   40.4960 C   0  0  0  0  0  0  0  0  0  0  0  0
   44.2290   33.6250   39.3590 N   0  0  0  0  0  0  0  0  0  0  0  0
   45.4140   33.1240   38.9350 C   0  0  0  0  0  0  0  0  0  0  0  0
   46.3870   33.4940   39.7960 N   0  0  0  0  0  0  0  0  0  0  0  0
   45.7460   32.3280   37.7940 N   0  0  0  0  0  0  0  0  0  0  0  0
   45.2368   37.0057   42.7660 H   0  0  0  0  0  0  0  0  0  0  0  0
   44.0648   35.5197   46.5471 H   0  0  0  0  0  0  0  0  0  0  0  0
   48.4821   32.9491   44.3888 H   0  0  0  0  0  0  0  0  0  0  0  0
   49.0720   30.6727   43.8091 H   0  0  0  0  0  0  0  0  0  0  0  0
   47.1039   29.1797   42.9244 H   0  0  0  0  0  0  0  0  0  0  0  0
   43.6749   34.8478   41.0965 H   0  0  0  0  0  0  0  0  0  0  0  0
   43.3220   33.4966   38.8880 H   0  0  0  0  0  0  0  0  0  0  0  0
   46.7213   32.0374   37.6349 H   0  0  0  0  0  0  0  0  0  0  0  0
   45.0098   32.0453   37.1314 H   0  0  0  0  0  0  0  0  0  0  0  0
  1  6  2  0
  2  1  1  0
  2  3  2  0
  3  4  1  0
  4  5  2  0
  6  5  1  0
  7  8  2  0
  7  3  1  0
  9  8  1  0
 10 11  1  0
 10  9  2  0
 11  7  1  0
 12  2  1  0
 13 12  2  0
 14 12  1  0
 15 14  2  0
 16 15  1  0
 17 16  1  0
 17 18  2  0
 18 14  1  0
 19 17  1  0
  1 20  1  0
  5 21  1  0
  8 22  1  0
  9 23  1  0
 10 24  1  0
 15 25  1  0
 16 26  1  0
 19 27  1  0
 19 28  1  0
M  ISO  7  20  14  21  14  22  14  23  14  24  14  25  14  26   9
M  END
>  <minimizedAffinity>  (1) 
-4.4015336

>  <minimizedRMSD>  (1) 
0.0286317542

$$$$
