
     RDKit          3D

 41 45  0  0  0  0  0  0  0  0999 V2000
   45.3680   34.1630   40.7380 C   0  0  0  0  0  0  0  0  0  0  0  0
   43.9940   34.2750   40.6430 C   0  0  0  0  0  0  0  0  0  0  0  0
   43.6540   33.6330   39.5140 N   0  0  0  0  0  0  0  0  0  0  0  0
   44.7870   33.1420   38.9330 C   0  0  0  0  0  0  0  0  0  0  0  0
   45.8460   33.4720   39.6930 N   0  0  0  0  0  0  0  0  0  0  0  0
   44.9510   32.3960   37.7370 N   0  0  0  0  0  0  0  0  0  0  0  0
   41.4980   34.4460   38.6160 N   0  0  0  0  0  0  0  0  0  0  0  0
   42.3440   33.4720   38.9810 C   0  0  0  0  0  0  0  0  0  0  0  0
   41.7410   32.2880   38.7600 N   0  0  0  0  0  0  0  0  0  0  0  0
   40.5220   32.4850   38.2570 C   0  0  0  0  0  0  0  0  0  0  0  0
   39.4680   31.6910   37.8430 C   0  0  0  0  0  0  0  0  0  0  0  0
   38.3120   32.1800   37.3600 N   0  0  0  0  0  0  0  0  0  0  0  0
   38.1850   33.5250   37.2810 C   0  0  0  0  0  0  0  0  0  0  0  0
   39.2000   34.3190   37.6790 N   0  0  0  0  0  0  0  0  0  0  0  0
   40.3600   33.8410   38.1630 C   0  0  0  0  0  0  0  0  0  0  0  0
   39.6330   30.2900   37.9400 N   0  0  0  0  0  0  0  0  0  0  0  0
   46.2220   34.7180   41.8260 C   0  0  0  0  0  0  0  0  0  0  0  0
   47.4450   35.0630   41.6740 O   0  0  0  0  0  0  0  0  0  0  0  0
   45.0800   36.1050   43.4950 C   0  0  0  0  0  0  0  0  0  0  0  0
   45.7010   34.8950   43.1330 C   0  0  0  0  0  0  0  0  0  0  0  0
   45.7500   33.9480   44.1340 C   0  0  0  0  0  0  0  0  0  0  0  0
   45.2420   34.1620   45.3570 N   0  0  0  0  0  0  0  0  0  0  0  0
   44.6540   35.3450   45.6580 C   0  0  0  0  0  0  0  0  0  0  0  0
   44.5760   36.3080   44.7270 N   0  0  0  0  0  0  0  0  0  0  0  0
   46.3580   32.6980   43.8620 C   0  0  0  0  0  0  0  0  0  0  0  0
   47.6310   32.2100   43.9250 C   0  0  0  0  0  0  0  0  0  0  0  0
   47.9280   30.9670   43.6050 C   0  0  0  0  0  0  0  0  0  0  0  0
   46.9040   30.1820   43.2040 C   0  0  0  0  0  0  0  0  0  0  0  0
   45.4450   31.2790   43.2920 S   0  0  0  0  0  0  0  0  0  0  0  0
   43.3189   34.7844   41.3464 H   0  0  0  0  0  0  0  0  0  0  0  0
   45.8917   32.1004   37.4393 H   0  0  0  0  0  0  0  0  0  0  0  0
   44.1293   32.1501   37.1666 H   0  0  0  0  0  0  0  0  0  0  0  0
   41.6731   35.4597   38.6675 H   0  0  0  0  0  0  0  0  0  0  0  0
   37.2565   33.9695   36.8933 H   0  0  0  0  0  0  0  0  0  0  0  0
   38.8739   29.6603   37.6431 H   0  0  0  0  0  0  0  0  0  0  0  0
   40.5122   29.8992   38.3076 H   0  0  0  0  0  0  0  0  0  0  0  0
   45.0041   36.9095   42.7486 H   0  0  0  0  0  0  0  0  0  0  0  0
   44.2415   35.5155   46.6634 H   0  0  0  0  0  0  0  0  0  0  0  0
   48.4390   32.8794   44.2552 H   0  0  0  0  0  0  0  0  0  0  0  0
   48.9587   30.5870   43.6615 H   0  0  0  0  0  0  0  0  0  0  0  0
   46.9402   29.1267   42.8958 H   0  0  0  0  0  0  0  0  0  0  0  0
  1 17  1  0
  2  1  2  0
  3  2  1  0
  4  3  1  0
  4  5  2  0
  5  1  1  0
  6  4  1  0
  7  8  1  0
  8  3  1  0
  9  8  2  0
 10  9  1  0
 11 16  1  0
 11 10  2  0
 12 11  1  0
 13 12  2  0
 13 14  1  0
 14 15  2  0
 15 10  1  0
 15  7  1  0
 17 20  1  0
 18 17  2  0
 19 24  2  0
 20 19  1  0
 20 21  2  0
 21 22  1  0
 22 23  2  0
 24 23  1  0
 25 26  2  0
 25 21  1  0
 27 26  1  0
 28 29  1  0
 28 27  2  0
 29 25  1  0
  2 30  1  0
  6 31  1  0
  6 32  1  0
  7 33  1  0
 13 34  1  0
 16 35  1  0
 16 36  1  0
 19 37  1  0
 23 38  1  0
 26 39  1  0
 27 40  1  0
 28 41  1  0
M  ISO  8  30  14  33   9  34  14  37  14  38  14  39  14  40  14  41  14
M  END
>  <minimizedAffinity>  (1) 
-6.47405434

>  <minimizedRMSD>  (1) 
0.634224117

$$$$
