
     RDKit          3D

 43 46  0  0  0  0  0  0  0  0999 V2000
   45.8630   35.0750   42.4630 C   0  0  0  0  0  0  0  0  0  0  0  0
   46.9760   35.6530   42.2580 O   0  0  0  0  0  0  0  0  0  0  0  0
   44.8860   34.7220   41.3690 C   0  0  0  0  0  0  0  0  0  0  0  0
   43.6200   35.2600   41.2010 C   0  0  0  0  0  0  0  0  0  0  0  0
   43.1340   34.6490   40.1090 N   0  0  0  0  0  0  0  0  0  0  0  0
   44.0450   33.7840   39.6290 C   0  0  0  0  0  0  0  0  0  0  0  0
   45.1580   33.8150   40.4110 N   0  0  0  0  0  0  0  0  0  0  0  0
   44.0210   32.8980   38.5020 N   0  0  0  0  0  0  0  0  0  0  0  0
   39.7010   34.7420   37.7820 N   0  0  0  0  0  0  0  0  0  0  0  0
   40.2350   33.4550   38.1610 C   0  0  0  0  0  0  0  0  0  0  0  0
   41.1550   33.5160   39.3440 C   0  0  0  0  0  0  0  0  0  0  0  0
   41.8340   34.8490   39.4940 C   0  0  0  0  0  0  0  0  0  0  0  0
   42.0140   35.5350   38.1320 C   0  0  0  0  0  0  0  0  0  0  0  0
   40.7060   35.7020   37.4530 C   0  0  0  0  0  0  0  0  0  0  0  0
   44.7930   35.6370   44.5870 C   0  0  0  0  0  0  0  0  0  0  0  0
   45.5600   34.7600   43.8180 C   0  0  0  0  0  0  0  0  0  0  0  0
   45.9790   33.6090   44.4730 C   0  0  0  0  0  0  0  0  0  0  0  0
   45.6680   33.3610   45.7460 N   0  0  0  0  0  0  0  0  0  0  0  0
   44.9150   34.2490   46.4590 C   0  0  0  0  0  0  0  0  0  0  0  0
   44.4860   35.3800   45.8690 N   0  0  0  0  0  0  0  0  0  0  0  0
   46.7630   32.6720   43.7590 C   0  0  0  0  0  0  0  0  0  0  0  0
   48.0900   32.5450   43.4850 C   0  0  0  0  0  0  0  0  0  0  0  0
   48.5570   31.5310   42.7670 C   0  0  0  0  0  0  0  0  0  0  0  0
   47.6690   30.6180   42.3130 C   0  0  0  0  0  0  0  0  0  0  0  0
   46.0710   31.2520   42.9510 S   0  0  0  0  0  0  0  0  0  0  0  0
   43.1238   36.0188   41.8238 H   0  0  0  0  0  0  0  0  0  0  0  0
   44.8365   32.3030   38.2972 H   0  0  0  0  0  0  0  0  0  0  0  0
   43.1883   32.8565   37.8972 H   0  0  0  0  0  0  0  0  0  0  0  0
   39.0921   34.6133   36.9613 H   0  0  0  0  0  0  0  0  0  0  0  0
   39.3955   32.7879   38.4063 H   0  0  0  0  0  0  0  0  0  0  0  0
   40.8253   33.0852   37.3097 H   0  0  0  0  0  0  0  0  0  0  0  0
   40.5695   33.3169   40.2537 H   0  0  0  0  0  0  0  0  0  0  0  0
   41.9413   32.7628   39.1877 H   0  0  0  0  0  0  0  0  0  0  0  0
   41.2060   35.4957   40.1245 H   0  0  0  0  0  0  0  0  0  0  0  0
   42.4713   36.5239   38.2833 H   0  0  0  0  0  0  0  0  0  0  0  0
   42.6620   34.9075   37.5025 H   0  0  0  0  0  0  0  0  0  0  0  0
   40.8808   35.6475   36.3684 H   0  0  0  0  0  0  0  0  0  0  0  0
   40.3147   36.6702   37.7987 H   0  0  0  0  0  0  0  0  0  0  0  0
   44.4285   36.5681   44.1284 H   0  0  0  0  0  0  0  0  0  0  0  0
   44.6606   34.0414   47.5089 H   0  0  0  0  0  0  0  0  0  0  0  0
   48.7921   33.3005   43.8676 H   0  0  0  0  0  0  0  0  0  0  0  0
   49.6309   31.4365   42.5485 H   0  0  0  0  0  0  0  0  0  0  0  0
   47.8583   29.7176   41.7101 H   0  0  0  0  0  0  0  0  0  0  0  0
  1 16  1  0
  2  1  2  0
  3  1  1  0
  4  3  2  0
  5  4  1  0
  6  5  1  0
  6  7  2  0
  7  3  1  0
  8  6  1  0
  9 10  1  0
 10 11  1  0
 11 12  1  0
 12  5  1  0
 13 12  1  0
 14  9  1  0
 14 13  1  0
 15 20  2  0
 16 17  2  0
 16 15  1  0
 17 18  1  0
 18 19  2  0
 20 19  1  0
 21 17  1  0
 22 21  2  0
 23 22  1  0
 24 23  2  0
 24 25  1  0
 25 21  1  0
  4 26  1  0
  8 27  1  0
  8 28  1  0
  9 29  1  0
 10 30  1  0
 10 31  1  0
 11 32  1  0
 11 33  1  0
 12 34  1  0
 13 35  1  0
 13 36  1  0
 14 37  1  0
 14 38  1  0
 15 39  1  0
 19 40  1  0
 22 41  1  0
 23 42  1  0
 24 43  1  0
M  ISO  8  26  14  29   5  30  13  31  13  32  13  33  13  34  13  35  13
M  ISO  8  36  13  37  13  38  13  39  14  40  14  41  14  42  14  43  14
M  END
>  <minimizedAffinity>  (1) 
-5.62980604

>  <minimizedRMSD>  (1) 
1.63391316

$$$$
