
     RDKit          3D

 34 36  0  0  0  0  0  0  0  0999 V2000
   44.8980   36.0280   43.2980 C   0  0  0  0  0  0  0  0  0  0  0  0
   45.2810   34.7650   42.8110 C   0  0  0  0  0  0  0  0  0  0  0  0
   45.3810   33.7760   43.7660 C   0  0  0  0  0  0  0  0  0  0  0  0
   45.1330   33.9940   45.0630 N   0  0  0  0  0  0  0  0  0  0  0  0
   44.7660   35.2390   45.4830 C   0  0  0  0  0  0  0  0  0  0  0  0
   44.6510   36.2410   44.6030 N   0  0  0  0  0  0  0  0  0  0  0  0
   45.7640   32.4770   43.3520 C   0  0  0  0  0  0  0  0  0  0  0  0
   46.9390   31.7990   43.2490 C   0  0  0  0  0  0  0  0  0  0  0  0
   47.0080   30.5570   42.8180 C   0  0  0  0  0  0  0  0  0  0  0  0
   45.8420   29.9670   42.4730 C   0  0  0  0  0  0  0  0  0  0  0  0
   44.5940   31.2610   42.7850 S   0  0  0  0  0  0  0  0  0  0  0  0
   45.5320   34.5900   41.4190 C   0  0  0  0  0  0  0  0  0  0  0  0
   46.7470   34.6070   41.0680 O   0  0  0  0  0  0  0  0  0  0  0  0
   44.3780   34.4000   40.4620 C   0  0  0  0  0  0  0  0  0  0  0  0
   43.2260   35.1470   40.4250 C   0  0  0  0  0  0  0  0  0  0  0  0
   42.4960   34.6210   39.4210 N   0  0  0  0  0  0  0  0  0  0  0  0
   43.1830   33.5940   38.8730 C   0  0  0  0  0  0  0  0  0  0  0  0
   44.3520   33.4550   39.5170 N   0  0  0  0  0  0  0  0  0  0  0  0
   42.8470   32.7190   37.7900 N   0  0  0  0  0  0  0  0  0  0  0  0
   41.2000   35.0150   38.9430 C   0  0  0  0  0  0  0  0  0  0  0  0
   41.2910   35.9900   37.7730 C   0  0  0  0  0  0  0  0  0  0  0  0
   44.7977   36.8652   42.5916 H   0  0  0  0  0  0  0  0  0  0  0  0
   44.5638   35.4201   46.5490 H   0  0  0  0  0  0  0  0  0  0  0  0
   47.8696   32.3096   43.5377 H   0  0  0  0  0  0  0  0  0  0  0  0
   47.9680   30.0253   42.7423 H   0  0  0  0  0  0  0  0  0  0  0  0
   45.6829   28.9469   42.0935 H   0  0  0  0  0  0  0  0  0  0  0  0
   42.9568   35.9927   41.0749 H   0  0  0  0  0  0  0  0  0  0  0  0
   43.5035   31.9790   37.5031 H   0  0  0  0  0  0  0  0  0  0  0  0
   41.9489   32.8298   37.2981 H   0  0  0  0  0  0  0  0  0  0  0  0
   40.6551   34.1175   38.6150 H   0  0  0  0  0  0  0  0  0  0  0  0
   40.6755   35.5222   39.7662 H   0  0  0  0  0  0  0  0  0  0  0  0
   41.3868   37.0162   38.1575 H   0  0  0  0  0  0  0  0  0  0  0  0
   42.1702   35.7449   37.1590 H   0  0  0  0  0  0  0  0  0  0  0  0
   40.3817   35.9119   37.1590 H   0  0  0  0  0  0  0  0  0  0  0  0
  1  6  2  0
  2  1  1  0
  2  3  2  0
  3  4  1  0
  4  5  2  0
  6  5  1  0
  7  3  1  0
  8  7  2  0
  9  8  1  0
 10 11  1  0
 10  9  2  0
 11  7  1  0
 12  2  1  0
 13 12  2  0
 14 12  1  0
 15 14  2  0
 16 15  1  0
 17 16  1  0
 17 18  2  0
 18 14  1  0
 19 17  1  0
 20 16  1  0
 21 20  1  0
  1 22  1  0
  5 23  1  0
  8 24  1  0
  9 25  1  0
 10 26  1  0
 15 27  1  0
 19 28  1  0
 19 29  1  0
 20 30  1  0
 20 31  1  0
 21 32  1  0
 21 33  1  0
 21 34  1  0
M  ISO  8  22  14  23  14  24  14  25  14  26  14  27  14  30   8  31   8
M  ISO  3  32   8  33   8  34   8
M  END
>  <minimizedAffinity>  (1) 
-4.85291815

>  <minimizedRMSD>  (1) 
1.57069886

$$$$
