
     RDKit          3D

 38 41  0  0  0  0  0  0  0  0999 V2000
   44.3780   34.8690   41.2330 C   0  0  0  0  0  0  0  0  0  0  0  0
   43.1920   35.5320   41.3630 C   0  0  0  0  0  0  0  0  0  0  0  0
   42.4520   35.1520   40.3020 N   0  0  0  0  0  0  0  0  0  0  0  0
   43.1550   34.2920   39.5550 C   0  0  0  0  0  0  0  0  0  0  0  0
   44.3610   34.1110   40.1330 N   0  0  0  0  0  0  0  0  0  0  0  0
   42.8160   33.6180   38.3510 N   0  0  0  0  0  0  0  0  0  0  0  0
   41.0970   35.5620   39.9520 C   0  0  0  0  0  0  0  0  0  0  0  0
   40.0950   34.5570   40.3810 C   0  0  0  0  0  0  0  0  0  0  0  0
   39.0490   34.1390   39.5500 C   0  0  0  0  0  0  0  0  0  0  0  0
   38.2940   33.2070   40.2250 C   0  0  0  0  0  0  0  0  0  0  0  0
   38.8760   33.0670   41.4400 N   0  0  0  0  0  0  0  0  0  0  0  0
   39.9240   33.8660   41.5010 N   0  0  0  0  0  0  0  0  0  0  0  0
   45.5550   34.9460   42.1600 C   0  0  0  0  0  0  0  0  0  0  0  0
   46.7370   35.2280   41.8070 O   0  0  0  0  0  0  0  0  0  0  0  0
   44.7280   35.6350   44.3680 C   0  0  0  0  0  0  0  0  0  0  0  0
   45.3770   34.6930   43.5470 C   0  0  0  0  0  0  0  0  0  0  0  0
   45.8000   33.5540   44.2130 C   0  0  0  0  0  0  0  0  0  0  0  0
   45.6140   33.3540   45.5190 N   0  0  0  0  0  0  0  0  0  0  0  0
   44.9770   34.2990   46.2670 C   0  0  0  0  0  0  0  0  0  0  0  0
   44.5440   35.4250   45.6820 N   0  0  0  0  0  0  0  0  0  0  0  0
   46.4720   32.5440   43.4590 C   0  0  0  0  0  0  0  0  0  0  0  0
   47.7630   32.2150   43.2090 C   0  0  0  0  0  0  0  0  0  0  0  0
   48.1130   31.2010   42.4550 C   0  0  0  0  0  0  0  0  0  0  0  0
   47.1050   30.4900   41.9310 C   0  0  0  0  0  0  0  0  0  0  0  0
   45.5930   31.2940   42.5350 S   0  0  0  0  0  0  0  0  0  0  0  0
   42.9016   36.2284   42.1634 H   0  0  0  0  0  0  0  0  0  0  0  0
   41.8918   33.7656   37.9208 H   0  0  0  0  0  0  0  0  0  0  0  0
   43.4944   32.9818   37.9084 H   0  0  0  0  0  0  0  0  0  0  0  0
   40.8753   36.5201   40.4449 H   0  0  0  0  0  0  0  0  0  0  0  0
   41.0390   35.6605   38.8580 H   0  0  0  0  0  0  0  0  0  0  0  0
   38.8614   34.4963   38.5267 H   0  0  0  0  0  0  0  0  0  0  0  0
   37.4008   32.6831   39.8538 H   0  0  0  0  0  0  0  0  0  0  0  0
   38.5538   32.4407   42.1916 H   0  0  0  0  0  0  0  0  0  0  0  0
   44.3609   36.5703   43.9203 H   0  0  0  0  0  0  0  0  0  0  0  0
   44.8192   34.1387   47.3438 H   0  0  0  0  0  0  0  0  0  0  0  0
   48.5560   32.8289   43.6609 H   0  0  0  0  0  0  0  0  0  0  0  0
   49.1669   30.9499   42.2646 H   0  0  0  0  0  0  0  0  0  0  0  0
   47.1779   29.6092   41.2761 H   0  0  0  0  0  0  0  0  0  0  0  0
  1  2  2  0
  1 13  1  0
  3  2  1  0
  4  5  2  0
  4  3  1  0
  5  1  1  0
  6  4  1  0
  7  3  1  0
  7  8  1  0
  8 12  2  0
  9 10  2  0
  9  8  1  0
 10 11  1  0
 11 12  1  0
 13 16  1  0
 14 13  2  0
 15 20  2  0
 16 17  2  0
 16 15  1  0
 17 18  1  0
 18 19  2  0
 20 19  1  0
 21 17  1  0
 22 21  2  0
 23 22  1  0
 24 23  2  0
 24 25  1  0
 25 21  1  0
  2 26  1  0
  6 27  1  0
  6 28  1  0
  7 29  1  0
  7 30  1  0
  9 31  1  0
 10 32  1  0
 11 33  1  0
 15 34  1  0
 19 35  1  0
 22 36  1  0
 23 37  1  0
 24 38  1  0
M  ISO  8  26  14  29   8  30   8  31  14  32  14  33   9  34  14  35  14
M  ISO  3  36  14  37  14  38  14
M  END
>  <minimizedAffinity>  (1) 
-5.93934011

>  <minimizedRMSD>  (1) 
2.49614763

$$$$
