
     RDKit          3D

 32 34  0  0  0  0  0  0  0  0999 V2000
   45.1910   36.1530   43.4610 C   0  0  0  0  0  0  0  0  0  0  0  0
   45.8370   34.9460   43.1350 C   0  0  0  0  0  0  0  0  0  0  0  0
   45.7980   33.9900   44.1360 C   0  0  0  0  0  0  0  0  0  0  0  0
   45.2040   34.1810   45.3110 N   0  0  0  0  0  0  0  0  0  0  0  0
   44.5940   35.3740   45.5640 C   0  0  0  0  0  0  0  0  0  0  0  0
   44.5950   36.3430   44.6390 N   0  0  0  0  0  0  0  0  0  0  0  0
   46.4340   32.7360   43.8850 C   0  0  0  0  0  0  0  0  0  0  0  0
   47.6930   32.2430   43.9730 C   0  0  0  0  0  0  0  0  0  0  0  0
   48.0140   31.0090   43.6710 C   0  0  0  0  0  0  0  0  0  0  0  0
   47.0000   30.2360   43.2580 C   0  0  0  0  0  0  0  0  0  0  0  0
   45.5360   31.3060   43.3000 S   0  0  0  0  0  0  0  0  0  0  0  0
   46.4600   34.7900   41.8630 C   0  0  0  0  0  0  0  0  0  0  0  0
   47.6420   35.2170   41.7830 O   0  0  0  0  0  0  0  0  0  0  0  0
   45.6990   34.1500   40.7360 C   0  0  0  0  0  0  0  0  0  0  0  0
   44.3510   34.1650   40.5440 C   0  0  0  0  0  0  0  0  0  0  0  0
   44.1280   33.4660   39.4090 N   0  0  0  0  0  0  0  0  0  0  0  0
   45.3090   33.0400   38.9280 C   0  0  0  0  0  0  0  0  0  0  0  0
   46.2770   33.4650   39.7510 N   0  0  0  0  0  0  0  0  0  0  0  0
   45.6070   32.2750   37.7730 N   0  0  0  0  0  0  0  0  0  0  0  0
   42.8620   33.1750   38.7490 C   0  0  0  0  0  0  0  0  0  0  0  0
   42.2030   31.6140   39.4490 S   0  0  0  0  0  0  0  0  0  0  0  0
   45.1771   36.9661   42.7203 H   0  0  0  0  0  0  0  0  0  0  0  0
   44.0989   35.5415   46.5319 H   0  0  0  0  0  0  0  0  0  0  0  0
   48.4911   32.9170   44.3176 H   0  0  0  0  0  0  0  0  0  0  0  0
   49.0448   30.6334   43.7509 H   0  0  0  0  0  0  0  0  0  0  0  0
   47.0458   29.1788   42.9578 H   0  0  0  0  0  0  0  0  0  0  0  0
   43.5969   34.6479   41.1828 H   0  0  0  0  0  0  0  0  0  0  0  0
   46.5840   32.0352   37.5521 H   0  0  0  0  0  0  0  0  0  0  0  0
   44.8466   31.9588   37.1544 H   0  0  0  0  0  0  0  0  0  0  0  0
   42.1504   33.9943   38.9288 H   0  0  0  0  0  0  0  0  0  0  0  0
   43.0114   33.0738   37.6639 H   0  0  0  0  0  0  0  0  0  0  0  0
   42.2307   31.6795   40.8172 H   0  0  0  0  0  0  0  0  0  0  0  0
  1  6  2  0
  2  1  1  0
  2  3  2  0
  3  4  1  0
  4  5  2  0
  6  5  1  0
  7  8  2  0
  7  3  1  0
  9  8  1  0
 10 11  1  0
 10  9  2  0
 11  7  1  0
 12  2  1  0
 13 12  2  0
 14 12  1  0
 15 14  2  0
 16 15  1  0
 17 16  1  0
 17 18  2  0
 18 14  1  0
 19 17  1  0
 20 16  1  0
 20 21  1  0
  1 22  1  0
  5 23  1  0
  8 24  1  0
  9 25  1  0
 10 26  1  0
 15 27  1  0
 19 28  1  0
 19 29  1  0
 20 30  1  0
 20 31  1  0
 21 32  1  0
M  ISO  8  22  14  23  14  24  14  25  14  26  14  27  14  30   8  31   8
M  ISO  1  32  11
M  END
>  <minimizedAffinity>  (1) 
-4.41125727

>  <minimizedRMSD>  (1) 
0.0772172138

$$$$
