
     RDKit          3D

 33 35  0  0  0  0  0  0  0  0999 V2000
   46.3020   34.7370   41.8620 C   0  0  0  0  0  0  0  0  0  0  0  0
   47.5050   35.0880   41.7480 O   0  0  0  0  0  0  0  0  0  0  0  0
   45.4590   34.1860   40.7550 C   0  0  0  0  0  0  0  0  0  0  0  0
   44.1040   34.3650   40.5800 C   0  0  0  0  0  0  0  0  0  0  0  0
   43.7890   33.6900   39.4600 N   0  0  0  0  0  0  0  0  0  0  0  0
   44.9020   33.1170   38.9630 C   0  0  0  0  0  0  0  0  0  0  0  0
   45.9450   33.4250   39.7680 N   0  0  0  0  0  0  0  0  0  0  0  0
   45.0930   32.3110   37.8110 N   0  0  0  0  0  0  0  0  0  0  0  0
   42.5100   33.5380   38.8120 C   0  0  0  0  0  0  0  0  0  0  0  0
   42.1550   32.1200   38.8690 N   0  0  0  0  0  0  0  0  0  0  0  0
   45.1090   36.1040   43.5240 C   0  0  0  0  0  0  0  0  0  0  0  0
   45.7470   34.8960   43.1550 C   0  0  0  0  0  0  0  0  0  0  0  0
   45.7570   33.9460   44.1710 C   0  0  0  0  0  0  0  0  0  0  0  0
   45.2200   34.1460   45.3740 N   0  0  0  0  0  0  0  0  0  0  0  0
   44.6200   35.3340   45.6600 C   0  0  0  0  0  0  0  0  0  0  0  0
   44.5740   36.2970   44.7310 N   0  0  0  0  0  0  0  0  0  0  0  0
   46.3830   32.6920   43.8950 C   0  0  0  0  0  0  0  0  0  0  0  0
   47.6430   32.1970   43.9620 C   0  0  0  0  0  0  0  0  0  0  0  0
   47.9500   30.9630   43.6370 C   0  0  0  0  0  0  0  0  0  0  0  0
   46.9280   30.1990   43.2260 C   0  0  0  0  0  0  0  0  0  0  0  0
   45.4700   31.2760   43.3030 S   0  0  0  0  0  0  0  0  0  0  0  0
   43.4216   34.9404   41.2228 H   0  0  0  0  0  0  0  0  0  0  0  0
   46.0316   31.9540   37.5821 H   0  0  0  0  0  0  0  0  0  0  0  0
   44.2930   32.0829   37.2036 H   0  0  0  0  0  0  0  0  0  0  0  0
   42.5782   33.8665   37.7644 H   0  0  0  0  0  0  0  0  0  0  0  0
   41.7458   34.1496   39.3140 H   0  0  0  0  0  0  0  0  0  0  0  0
   42.0809   31.8239   39.8527 H   0  0  0  0  0  0  0  0  0  0  0  0
   41.2513   31.9731   38.3972 H   0  0  0  0  0  0  0  0  0  0  0  0
   45.0518   36.9172   42.7855 H   0  0  0  0  0  0  0  0  0  0  0  0
   44.1743   35.5023   46.6515 H   0  0  0  0  0  0  0  0  0  0  0  0
   48.4484   32.8626   44.3059 H   0  0  0  0  0  0  0  0  0  0  0  0
   48.9795   30.5804   43.6979 H   0  0  0  0  0  0  0  0  0  0  0  0
   46.9653   29.1460   42.9101 H   0  0  0  0  0  0  0  0  0  0  0  0
  1 12  1  0
  2  1  2  0
  3  1  1  0
  4  3  2  0
  5  4  1  0
  6  5  1  0
  6  7  2  0
  7  3  1  0
  8  6  1  0
  9 10  1  0
  9  5  1  0
 11 16  2  0
 12 11  1  0
 12 13  2  0
 13 14  1  0
 14 15  2  0
 16 15  1  0
 17 18  2  0
 17 13  1  0
 19 18  1  0
 20 21  1  0
 20 19  2  0
 21 17  1  0
  4 22  1  0
  8 23  1  0
  8 24  1  0
  9 25  1  0
  9 26  1  0
 10 27  1  0
 10 28  1  0
 11 29  1  0
 15 30  1  0
 18 31  1  0
 19 32  1  0
 20 33  1  0
M  ISO  8  22  14  25   8  26   8  27   5  28   5  29  14  30  14  31  14
M  ISO  2  32  14  33  14
M  END
>  <minimizedAffinity>  (1) 
-4.43388891

>  <minimizedRMSD>  (1) 
0.338689715

$$$$
