
     RDKit          3D

 39 43  0  0  1  0  0  0  0  0999 V2000
   46.7110   33.4640   43.1110 C   0  0  1  0  0  0  0  0  0  0  0  0
   46.9360   34.8190   42.6510 C   0  0  0  0  0  0  0  0  0  0  0  0
   48.0980   33.8570   42.6930 C   0  0  2  0  0  0  0  0  0  0  0  0
   48.5370   33.3240   41.3800 C   0  0  0  0  0  0  0  0  0  0  0  0
   49.3630   32.2150   41.2280 C   0  0  0  0  0  0  0  0  0  0  0  0
   49.7180   31.7480   39.9710 C   0  0  0  0  0  0  0  0  0  0  0  0
   49.2500   32.3850   38.8430 C   0  0  0  0  0  0  0  0  0  0  0  0
   49.5680   31.9490   37.5930 N   0  0  0  0  0  0  0  0  0  0  0  0
   49.0920   32.5780   36.4950 C   0  0  0  0  0  0  0  0  0  0  0  0
   48.2540   33.7040   36.5600 C   0  0  0  0  0  0  0  0  0  0  0  0
   47.9190   34.1640   37.8160 C   0  0  0  0  0  0  0  0  0  0  0  0
   48.4220   33.4980   38.9370 C   0  0  0  0  0  0  0  0  0  0  0  0
   48.0950   33.9280   40.2160 C   0  0  0  0  0  0  0  0  0  0  0  0
   45.5300   33.9340   45.2910 C   0  0  0  0  0  0  0  0  0  0  0  0
   46.4750   33.1610   44.5470 C   0  0  0  0  0  0  0  0  0  0  0  0
   47.1570   32.1540   45.2050 C   0  0  0  0  0  0  0  0  0  0  0  0
   46.8790   31.9690   46.5260 N   0  0  0  0  0  0  0  0  0  0  0  0
   45.9850   32.7070   47.2140 C   0  0  0  0  0  0  0  0  0  0  0  0
   45.3050   33.6970   46.5910 N   0  0  0  0  0  0  0  0  0  0  0  0
   45.7940   32.3820   48.6540 C   0  0  0  0  0  0  0  0  0  0  0  0
   46.2430   31.1010   49.2150 C   0  0  0  0  0  0  0  0  0  0  0  0
   44.7830   31.2380   48.9040 C   0  0  0  0  0  0  0  0  0  0  0  0
   45.9897   32.6857   42.8211 H   0  0  0  0  0  0  0  0  0  0  0  0
   46.8908   35.6542   43.3654 H   0  0  0  0  0  0  0  0  0  0  0  0
   46.4877   35.4549   41.8734 H   0  0  0  0  0  0  0  0  0  0  0  0
   49.0996   33.8453   43.1475 H   0  0  0  0  0  0  0  0  0  0  0  0
   49.7420   31.6983   42.1221 H   0  0  0  0  0  0  0  0  0  0  0  0
   50.3729   30.8694   39.8751 H   0  0  0  0  0  0  0  0  0  0  0  0
   49.3738   32.1903   35.5049 H   0  0  0  0  0  0  0  0  0  0  0  0
   47.8818   34.1965   35.6496 H   0  0  0  0  0  0  0  0  0  0  0  0
   47.2661   35.0414   37.9338 H   0  0  0  0  0  0  0  0  0  0  0  0
   47.4410   34.8074   40.3104 H   0  0  0  0  0  0  0  0  0  0  0  0
   44.9764   34.7395   44.7864 H   0  0  0  0  0  0  0  0  0  0  0  0
   47.8947   31.5271   44.6827 H   0  0  0  0  0  0  0  0  0  0  0  0
   45.9579   33.4226   48.9706 H   0  0  0  0  0  0  0  0  0  0  0  0
   46.8666   30.4309   48.6049 H   0  0  0  0  0  0  0  0  0  0  0  0
   46.8056   30.8213   50.1179 H   0  0  0  0  0  0  0  0  0  0  0  0
   44.0457   31.3147   49.7168 H   0  0  0  0  0  0  0  0  0  0  0  0
   44.0471   30.6862   48.3007 H   0  0  0  0  0  0  0  0  0  0  0  0
  1 15  1  0
  2  3  1  0
  2  1  1  0
  3  1  1  0
  4  3  1  0
  5  4  2  0
  6  5  1  0
  7 12  1  0
  7  6  2  0
  8  7  1  0
  9 10  1  0
  9  8  2  0
 10 11  2  0
 11 12  1  0
 12 13  2  0
 13  4  1  0
 14 19  2  0
 15 16  2  0
 15 14  1  0
 16 17  1  0
 17 18  2  0
 18 20  1  0
 19 18  1  0
 20 22  1  0
 20 21  1  0
 22 21  1  0
  1 23  1  6
  2 24  1  0
  2 25  1  0
  3 26  1  1
  5 27  1  0
  6 28  1  0
  9 29  1  0
 10 30  1  0
 11 31  1  0
 13 32  1  0
 14 33  1  0
 16 34  1  0
 20 35  1  0
 21 36  1  0
 21 37  1  0
 22 38  1  0
 22 39  1  0
M  ISO  8  23  13  24  13  25  13  26  13  27  14  28  14  29  14  30  14
M  ISO  8  31  14  32  14  33  14  34  14  35  13  36  13  37  13  38  13
M  ISO  1  39  13
M  END
>  <minimizedAffinity>  (1) 
-5.65904713

>  <minimizedRMSD>  (1) 
2.96089363

$$$$
