
     RDKit          3D

 45 50  0  0  1  0  0  0  0  0999 V2000
   46.7720   33.3700   43.2090 C   0  0  1  0  0  0  0  0  0  0  0  0
   47.0400   34.7430   42.7970 C   0  0  0  0  0  0  0  0  0  0  0  0
   48.1700   33.7840   42.7830 C   0  0  2  0  0  0  0  0  0  0  0  0
   48.5860   33.2470   41.4600 C   0  0  0  0  0  0  0  0  0  0  0  0
   49.4010   32.1480   41.2820 C   0  0  0  0  0  0  0  0  0  0  0  0
   49.7460   31.7100   40.0130 C   0  0  0  0  0  0  0  0  0  0  0  0
   49.2820   32.3640   38.9030 C   0  0  0  0  0  0  0  0  0  0  0  0
   49.6020   31.9560   37.6560 N   0  0  0  0  0  0  0  0  0  0  0  0
   49.1300   32.6230   36.5660 C   0  0  0  0  0  0  0  0  0  0  0  0
   48.2910   33.7610   36.6460 C   0  0  0  0  0  0  0  0  0  0  0  0
   47.9620   34.1770   37.9230 C   0  0  0  0  0  0  0  0  0  0  0  0
   48.4520   33.4860   39.0230 C   0  0  0  0  0  0  0  0  0  0  0  0
   48.1340   33.8870   40.3040 C   0  0  0  0  0  0  0  0  0  0  0  0
   45.5590   33.7000   45.3890 C   0  0  0  0  0  0  0  0  0  0  0  0
   46.5920   33.0290   44.6510 C   0  0  0  0  0  0  0  0  0  0  0  0
   47.3650   32.1100   45.3140 C   0  0  0  0  0  0  0  0  0  0  0  0
   47.1030   31.8930   46.6320 N   0  0  0  0  0  0  0  0  0  0  0  0
   46.1220   32.5360   47.3120 C   0  0  0  0  0  0  0  0  0  0  0  0
   45.3510   33.4400   46.6900 N   0  0  0  0  0  0  0  0  0  0  0  0
   45.9320   32.1990   48.7450 C   0  0  2  0  0  0  0  0  0  0  0  0
   46.6780   31.1370   49.3940 C   0  0  0  0  0  0  0  0  0  0  0  0
   45.2580   30.8180   48.9860 C   0  0  2  0  0  0  0  0  0  0  0  0
   45.1660   29.8830   47.8370 C   0  0  0  0  0  0  0  0  0  0  0  0
   44.3370   29.7130   46.7930 N   0  0  0  0  0  0  0  0  0  0  0  0
   44.7000   28.6900   46.0120 C   0  0  0  0  0  0  0  0  0  0  0  0
   45.8060   28.1920   46.5880 N   0  0  0  0  0  0  0  0  0  0  0  0
   46.0840   28.8940   47.6670 N   0  0  0  0  0  0  0  0  0  0  0  0
   46.0256   32.6221   42.9031 H   0  0  0  0  0  0  0  0  0  0  0  0
   46.6308   35.1152   41.8462 H   0  0  0  0  0  0  0  0  0  0  0  0
   46.8775   35.7265   43.2621 H   0  0  0  0  0  0  0  0  0  0  0  0
   49.1814   33.7743   43.2153 H   0  0  0  0  0  0  0  0  0  0  0  0
   49.7835   31.6103   42.1621 H   0  0  0  0  0  0  0  0  0  0  0  0
   50.3970   30.8310   39.8968 H   0  0  0  0  0  0  0  0  0  0  0  0
   49.4164   32.2575   35.5688 H   0  0  0  0  0  0  0  0  0  0  0  0
   47.9242   34.2812   35.7489 H   0  0  0  0  0  0  0  0  0  0  0  0
   47.3134   35.0536   38.0671 H   0  0  0  0  0  0  0  0  0  0  0  0
   47.4835   34.7661   40.4224 H   0  0  0  0  0  0  0  0  0  0  0  0
   44.9260   34.4411   44.8790 H   0  0  0  0  0  0  0  0  0  0  0  0
   48.1699   31.5664   44.7977 H   0  0  0  0  0  0  0  0  0  0  0  0
   45.7741   33.2524   49.0197 H   0  0  0  0  0  0  0  0  0  0  0  0
   47.5137   30.6598   48.8612 H   0  0  0  0  0  0  0  0  0  0  0  0
   47.2270   31.0681   50.3447 H   0  0  0  0  0  0  0  0  0  0  0  0
   44.3219   30.4831   49.4567 H   0  0  0  0  0  0  0  0  0  0  0  0
   44.2018   28.3344   45.0980 H   0  0  0  0  0  0  0  0  0  0  0  0
   46.3501   27.3891   46.2413 H   0  0  0  0  0  0  0  0  0  0  0  0
  1 15  1  0
  2  1  1  0
  3  2  1  0
  3  1  1  0
  4  3  1  0
  5  4  2  0
  6  5  1  0
  7 12  1  0
  7  6  2  0
  8  7  1  0
  9 10  1  0
  9  8  2  0
 10 11  2  0
 11 12  1  0
 12 13  2  0
 13  4  1  0
 14 19  2  0
 15 16  2  0
 15 14  1  0
 16 17  1  0
 17 18  2  0
 18 20  1  0
 19 18  1  0
 20 22  1  0
 20 21  1  0
 22 21  1  0
 23 22  1  0
 24 23  1  0
 25 26  1  0
 25 24  2  0
 26 27  1  0
 27 23  2  0
  1 28  1  6
  2 29  1  0
  2 30  1  0
  3 31  1  1
  5 32  1  0
  6 33  1  0
  9 34  1  0
 10 35  1  0
 11 36  1  0
 13 37  1  0
 14 38  1  0
 16 39  1  0
 20 40  1  1
 21 41  1  0
 21 42  1  0
 22 43  1  1
 25 44  1  0
 26 45  1  0
M  ISO  8  28  13  29  13  30  13  31  13  32  14  33  14  34  14  35  14
M  ISO  8  36  14  37  14  38  14  39  14  40  13  41  13  42  13  43  13
M  ISO  2  44  14  45   9
M  END
>  <minimizedAffinity>  (1) 
-5.88042116

>  <minimizedRMSD>  (1) 
0.578794539

$$$$
