
     RDKit          3D

 54 59  0  0  1  0  0  0  0  0999 V2000
   47.0040   33.6940   42.5430 C   0  0  1  0  0  0  0  0  0  0  0  0
   47.5890   34.9890   42.2110 C   0  0  0  0  0  0  0  0  0  0  0  0
   48.4770   33.8030   42.1790 C   0  0  2  0  0  0  0  0  0  0  0  0
   48.8150   33.2480   40.8400 C   0  0  0  0  0  0  0  0  0  0  0  0
   49.7100   32.2210   40.6310 C   0  0  0  0  0  0  0  0  0  0  0  0
   49.9810   31.7540   39.3510 C   0  0  0  0  0  0  0  0  0  0  0  0
   49.3540   32.3160   38.2660 C   0  0  0  0  0  0  0  0  0  0  0  0
   49.5940   31.8780   37.0030 N   0  0  0  0  0  0  0  0  0  0  0  0
   48.9640   32.4420   35.9510 C   0  0  0  0  0  0  0  0  0  0  0  0
   48.0320   33.5020   36.0650 C   0  0  0  0  0  0  0  0  0  0  0  0
   47.7770   33.9570   37.3360 C   0  0  0  0  0  0  0  0  0  0  0  0
   48.4370   33.3620   38.4170 C   0  0  0  0  0  0  0  0  0  0  0  0
   48.2020   33.7910   39.7100 C   0  0  0  0  0  0  0  0  0  0  0  0
   45.6240   34.0280   44.6270 C   0  0  0  0  0  0  0  0  0  0  0  0
   46.6980   33.3350   43.9610 C   0  0  0  0  0  0  0  0  0  0  0  0
   47.3900   32.3840   44.6640 C   0  0  0  0  0  0  0  0  0  0  0  0
   46.9950   32.1720   45.9530 N   0  0  0  0  0  0  0  0  0  0  0  0
   45.9980   32.8160   46.5650 C   0  0  0  0  0  0  0  0  0  0  0  0
   45.3060   33.7510   45.8990 N   0  0  0  0  0  0  0  0  0  0  0  0
   45.6930   32.4410   47.9690 C   0  0  2  0  0  0  0  0  0  0  0  0
   46.6660   31.8140   48.8450 C   0  0  0  0  0  0  0  0  0  0  0  0
   45.6310   30.9240   48.2390 C   0  0  2  0  0  0  0  0  0  0  0  0
   45.8860   29.9670   47.2300 N   0  0  0  0  0  0  0  0  0  0  0  0
   46.9300   29.0910   47.4610 C   0  0  0  0  0  0  0  0  0  0  0  0
   46.5570   27.6160   47.2700 C   0  0  0  0  0  0  0  0  0  0  0  0
   45.2550   27.4190   48.0160 C   0  0  0  0  0  0  0  0  0  0  0  0
   44.2030   28.1680   47.2270 C   0  0  0  0  0  0  0  0  0  0  0  0
   44.6760   29.4710   46.6890 C   0  0  0  0  0  0  0  0  0  0  0  0
   46.1212   33.1490   42.1775 H   0  0  0  0  0  0  0  0  0  0  0  0
   47.3113   35.4856   41.2696 H   0  0  0  0  0  0  0  0  0  0  0  0
   47.6316   35.9619   42.7225 H   0  0  0  0  0  0  0  0  0  0  0  0
   49.4427   33.5467   42.6392 H   0  0  0  0  0  0  0  0  0  0  0  0
   50.2184   31.7633   41.4924 H   0  0  0  0  0  0  0  0  0  0  0  0
   50.6987   30.9330   39.2063 H   0  0  0  0  0  0  0  0  0  0  0  0
   49.1877   32.0554   34.9458 H   0  0  0  0  0  0  0  0  0  0  0  0
   47.5388   33.9376   35.1835 H   0  0  0  0  0  0  0  0  0  0  0  0
   47.0637   34.7779   37.5016 H   0  0  0  0  0  0  0  0  0  0  0  0
   47.4860   34.6129   39.8576 H   0  0  0  0  0  0  0  0  0  0  0  0
   45.0561   34.7967   44.0824 H   0  0  0  0  0  0  0  0  0  0  0  0
   48.2204   31.8209   44.2130 H   0  0  0  0  0  0  0  0  0  0  0  0
   45.0556   33.3284   48.0964 H   0  0  0  0  0  0  0  0  0  0  0  0
   47.7126   31.7279   48.5176 H   0  0  0  0  0  0  0  0  0  0  0  0
   46.9916   32.0055   49.8781 H   0  0  0  0  0  0  0  0  0  0  0  0
   44.8986   30.2003   48.6262 H   0  0  0  0  0  0  0  0  0  0  0  0
   47.7468   29.3346   46.7657 H   0  0  0  0  0  0  0  0  0  0  0  0
   47.2219   29.2128   48.5145 H   0  0  0  0  0  0  0  0  0  0  0  0
   46.4242   27.3899   46.2017 H   0  0  0  0  0  0  0  0  0  0  0  0
   47.3447   26.9474   47.6476 H   0  0  0  0  0  0  0  0  0  0  0  0
   45.0032   26.3495   48.0690 H   0  0  0  0  0  0  0  0  0  0  0  0
   45.3232   27.7903   49.0492 H   0  0  0  0  0  0  0  0  0  0  0  0
   43.8874   27.5374   46.3827 H   0  0  0  0  0  0  0  0  0  0  0  0
   43.3763   28.3864   47.9190 H   0  0  0  0  0  0  0  0  0  0  0  0
   44.8157   29.3556   45.6040 H   0  0  0  0  0  0  0  0  0  0  0  0
   43.9051   30.2035   46.9703 H   0  0  0  0  0  0  0  0  0  0  0  0
  1 15  1  0
  2  1  1  0
  3  2  1  0
  3  1  1  0
  4  3  1  0
  5  4  2  0
  6  5  1  0
  7 12  1  0
  7  6  2  0
  8  7  1  0
  9 10  1  0
  9  8  2  0
 10 11  2  0
 11 12  1  0
 12 13  2  0
 13  4  1  0
 14 19  2  0
 15 14  1  0
 15 16  2  0
 16 17  1  0
 17 18  2  0
 18 20  1  0
 19 18  1  0
 20 22  1  0
 20 21  1  0
 22 21  1  0
 23 24  1  0
 23 22  1  0
 25 24  1  0
 25 26  1  0
 27 26  1  0
 28 27  1  0
 28 23  1  0
  1 29  1  6
  2 30  1  0
  2 31  1  0
  3 32  1  1
  5 33  1  0
  6 34  1  0
  9 35  1  0
 10 36  1  0
 11 37  1  0
 13 38  1  0
 14 39  1  0
 16 40  1  0
 20 41  1  1
 21 42  1  0
 21 43  1  0
 22 44  1  1
 24 45  1  0
 24 46  1  0
 25 47  1  0
 25 48  1  0
 26 49  1  0
 26 50  1  0
 27 51  1  0
 27 52  1  0
 28 53  1  0
 28 54  1  0
M  ISO  8  29  13  30  13  31  13  32  13  33  14  34  14  35  14  36  14
M  ISO  8  37  14  38  14  39  14  40  14  41  13  42  13  43  13  44  13
M  ISO  8  45  13  46  13  47  13  48  13  49  13  50  13  51  13  52  13
M  ISO  2  53  13  54  13
M  END
>  <minimizedAffinity>  (1) 
-5.79636288

>  <minimizedRMSD>  (1) 
1.501302

$$$$
