
     RDKit          3D

 43 47  0  0  1  0  0  0  0  0999 V2000
   46.7780   33.6930   42.6150 C   0  0  1  0  0  0  0  0  0  0  0  0
   47.2080   35.0250   42.2020 C   0  0  0  0  0  0  0  0  0  0  0  0
   48.2320   33.9460   42.2390 C   0  0  2  0  0  0  0  0  0  0  0  0
   48.6300   33.3530   40.9350 C   0  0  0  0  0  0  0  0  0  0  0  0
   49.5210   32.3100   40.7940 C   0  0  0  0  0  0  0  0  0  0  0  0
   49.8470   31.8140   39.5440 C   0  0  0  0  0  0  0  0  0  0  0  0
   49.2890   32.3540   38.4100 C   0  0  0  0  0  0  0  0  0  0  0  0
   49.5910   31.8850   37.1790 N   0  0  0  0  0  0  0  0  0  0  0  0
   49.0170   32.4420   36.0760 C   0  0  0  0  0  0  0  0  0  0  0  0
   48.0940   33.5150   36.1230 C   0  0  0  0  0  0  0  0  0  0  0  0
   47.7840   33.9940   37.3780 C   0  0  0  0  0  0  0  0  0  0  0  0
   48.3790   33.4160   38.4990 C   0  0  0  0  0  0  0  0  0  0  0  0
   48.0830   33.8780   39.7650 C   0  0  0  0  0  0  0  0  0  0  0  0
   45.5370   34.1910   44.7590 C   0  0  0  0  0  0  0  0  0  0  0  0
   46.5010   33.4010   44.0520 C   0  0  0  0  0  0  0  0  0  0  0  0
   47.1450   32.4070   44.7420 C   0  0  0  0  0  0  0  0  0  0  0  0
   46.8250   32.2350   46.0550 N   0  0  0  0  0  0  0  0  0  0  0  0
   45.9080   32.9960   46.7080 C   0  0  0  0  0  0  0  0  0  0  0  0
   45.2650   33.9750   46.0530 N   0  0  0  0  0  0  0  0  0  0  0  0
   45.6500   32.6960   48.1450 C   0  0  2  0  0  0  0  0  0  0  0  0
   46.2980   31.5850   48.8200 C   0  0  0  0  0  0  0  0  0  0  0  0
   44.8770   31.3550   48.3640 C   0  0  2  0  0  0  0  0  0  0  0  0
   44.8100   29.0760   47.3400 C   0  0  0  0  0  0  0  0  0  0  0  0
   44.9730   28.4470   48.4260 O   0  0  0  0  0  0  0  0  0  0  0  0
   44.7540   30.4910   47.2320 N   0  0  0  0  0  0  0  0  0  0  0  0
   45.9704   33.0225   42.2862 H   0  0  0  0  0  0  0  0  0  0  0  0
   47.2473   35.8376   42.9424 H   0  0  0  0  0  0  0  0  0  0  0  0
   46.8703   35.7324   41.4303 H   0  0  0  0  0  0  0  0  0  0  0  0
   49.2196   33.8310   42.7095 H   0  0  0  0  0  0  0  0  0  0  0  0
   49.9798   31.8653   41.6894 H   0  0  0  0  0  0  0  0  0  0  0  0
   50.5591   30.9801   39.4572 H   0  0  0  0  0  0  0  0  0  0  0  0
   49.2865   32.0341   35.0906 H   0  0  0  0  0  0  0  0  0  0  0  0
   47.6503   33.9414   35.2113 H   0  0  0  0  0  0  0  0  0  0  0  0
   47.0731   34.8253   37.4942 H   0  0  0  0  0  0  0  0  0  0  0  0
   47.3716   34.7119   39.8568 H   0  0  0  0  0  0  0  0  0  0  0  0
   45.0073   34.9945   44.2263 H   0  0  0  0  0  0  0  0  0  0  0  0
   47.8954   31.7693   44.2518 H   0  0  0  0  0  0  0  0  0  0  0  0
   45.5568   33.7586   48.4136 H   0  0  0  0  0  0  0  0  0  0  0  0
   47.1189   31.0528   48.3171 H   0  0  0  0  0  0  0  0  0  0  0  0
   46.8061   31.4829   49.7903 H   0  0  0  0  0  0  0  0  0  0  0  0
   43.9153   31.0659   48.8130 H   0  0  0  0  0  0  0  0  0  0  0  0
   44.7045   28.4868   46.4171 H   0  0  0  0  0  0  0  0  0  0  0  0
   44.6194   30.9112   46.3013 H   0  0  0  0  0  0  0  0  0  0  0  0
  1 15  1  0
  2  3  1  0
  2  1  1  0
  3  1  1  0
  4  3  1  0
  5  4  2  0
  6  5  1  0
  7 12  1  0
  7  6  2  0
  8  7  1  0
  9 10  1  0
  9  8  2  0
 10 11  2  0
 11 12  1  0
 12 13  2  0
 13  4  1  0
 14 19  2  0
 15 16  2  0
 15 14  1  0
 16 17  1  0
 17 18  2  0
 18 20  1  0
 19 18  1  0
 20 22  1  0
 20 21  1  0
 22 21  1  0
 23 24  2  0
 25 23  1  0
 25 22  1  0
  1 26  1  6
  2 27  1  0
  2 28  1  0
  3 29  1  1
  5 30  1  0
  6 31  1  0
  9 32  1  0
 10 33  1  0
 11 34  1  0
 13 35  1  0
 14 36  1  0
 16 37  1  0
 20 38  1  1
 21 39  1  0
 21 40  1  0
 22 41  1  1
 23 42  1  0
 25 43  1  0
M  ISO  8  26  13  27  13  28  13  29  13  30  14  31  14  32  14  33  14
M  ISO  8  34  14  35  14  36  14  37  14  38  13  39  13  40  13  41  13
M  ISO  1  42   6
M  END
>  <minimizedAffinity>  (1) 
-5.95392704

>  <minimizedRMSD>  (1) 
0.72622478

$$$$
