
     RDKit          3D

 45 49  0  0  1  0  0  0  0  0999 V2000
   46.7090   33.4600   43.0320 C   0  0  1  0  0  0  0  0  0  0  0  0
   46.9620   34.8270   42.5900 C   0  0  0  0  0  0  0  0  0  0  0  0
   48.1020   33.8830   42.5970 C   0  0  2  0  0  0  0  0  0  0  0  0
   48.5260   33.3210   41.2840 C   0  0  0  0  0  0  0  0  0  0  0  0
   49.3850   32.2540   41.1390 C   0  0  0  0  0  0  0  0  0  0  0  0
   49.7450   31.7950   39.8880 C   0  0  0  0  0  0  0  0  0  0  0  0
   49.2500   32.3970   38.7620 C   0  0  0  0  0  0  0  0  0  0  0  0
   49.5850   31.9650   37.5110 N   0  0  0  0  0  0  0  0  0  0  0  0
   49.0770   32.5840   36.4090 C   0  0  0  0  0  0  0  0  0  0  0  0
   48.1900   33.6860   36.4680 C   0  0  0  0  0  0  0  0  0  0  0  0
   47.8420   34.1320   37.7190 C   0  0  0  0  0  0  0  0  0  0  0  0
   48.3730   33.4850   38.8420 C   0  0  0  0  0  0  0  0  0  0  0  0
   48.0430   33.9080   40.1140 C   0  0  0  0  0  0  0  0  0  0  0  0
   45.5330   33.8790   45.2260 C   0  0  0  0  0  0  0  0  0  0  0  0
   46.5320   33.1560   44.4820 C   0  0  0  0  0  0  0  0  0  0  0  0
   47.2760   32.2160   45.1470 C   0  0  0  0  0  0  0  0  0  0  0  0
   47.0040   32.0430   46.4720 N   0  0  0  0  0  0  0  0  0  0  0  0
   46.0760   32.7170   47.1530 C   0  0  0  0  0  0  0  0  0  0  0  0
   45.3310   33.6430   46.5330 N   0  0  0  0  0  0  0  0  0  0  0  0
   45.8920   32.3840   48.5890 C   0  0  2  0  0  0  0  0  0  0  0  0
   46.6140   31.3100   49.2450 C   0  0  0  0  0  0  0  0  0  0  0  0
   45.1900   31.0550   48.8780 C   0  0  2  0  0  0  0  0  0  0  0  0
   44.7590   30.1450   47.8290 C   0  0  0  0  0  0  0  0  0  0  0  0
   45.2130   28.7450   47.7970 C   0  0  0  0  0  0  0  0  0  0  0  0
   45.9739   32.6946   42.7426 H   0  0  0  0  0  0  0  0  0  0  0  0
   46.9322   35.6489   43.3205 H   0  0  0  0  0  0  0  0  0  0  0  0
   46.5137   35.4783   41.8253 H   0  0  0  0  0  0  0  0  0  0  0  0
   49.1133   33.8959   43.0295 H   0  0  0  0  0  0  0  0  0  0  0  0
   49.7905   31.7599   42.0343 H   0  0  0  0  0  0  0  0  0  0  0  0
   50.4328   30.9416   39.7951 H   0  0  0  0  0  0  0  0  0  0  0  0
   49.3722   32.2069   35.4187 H   0  0  0  0  0  0  0  0  0  0  0  0
   47.7989   34.1614   35.5564 H   0  0  0  0  0  0  0  0  0  0  0  0
   47.1567   34.9843   37.8375 H   0  0  0  0  0  0  0  0  0  0  0  0
   47.3560   34.7616   40.2113 H   0  0  0  0  0  0  0  0  0  0  0  0
   44.9239   34.6388   44.7144 H   0  0  0  0  0  0  0  0  0  0  0  0
   48.0545   31.6299   44.6366 H   0  0  0  0  0  0  0  0  0  0  0  0
   45.7669   33.4478   48.8393 H   0  0  0  0  0  0  0  0  0  0  0  0
   47.4158   30.7859   48.7043 H   0  0  0  0  0  0  0  0  0  0  0  0
   47.1839   31.2368   50.1830 H   0  0  0  0  0  0  0  0  0  0  0  0
   44.2892   30.7215   49.4141 H   0  0  0  0  0  0  0  0  0  0  0  0
   43.6604   30.1150   47.8749 H   0  0  0  0  0  0  0  0  0  0  0  0
   45.2349   30.5708   46.9333 H   0  0  0  0  0  0  0  0  0  0  0  0
   45.3330   28.3749   48.8259 H   0  0  0  0  0  0  0  0  0  0  0  0
   44.4683   28.1300   47.2706 H   0  0  0  0  0  0  0  0  0  0  0  0
   46.1769   28.6841   47.2706 H   0  0  0  0  0  0  0  0  0  0  0  0
  1 15  1  0
  2  3  1  0
  2  1  1  0
  3  1  1  0
  4  3  1  0
  5  4  2  0
  6  5  1  0
  7 12  1  0
  7  6  2  0
  8  7  1  0
  9 10  1  0
  9  8  2  0
 10 11  2  0
 11 12  1  0
 12 13  2  0
 13  4  1  0
 14 19  2  0
 15 16  2  0
 15 14  1  0
 16 17  1  0
 17 18  2  0
 18 20  1  0
 19 18  1  0
 20 22  1  0
 20 21  1  0
 22 21  1  0
 23 22  1  0
 24 23  1  0
  1 25  1  6
  2 26  1  0
  2 27  1  0
  3 28  1  1
  5 29  1  0
  6 30  1  0
  9 31  1  0
 10 32  1  0
 11 33  1  0
 13 34  1  0
 14 35  1  0
 16 36  1  0
 20 37  1  1
 21 38  1  0
 21 39  1  0
 22 40  1  1
 23 41  1  0
 23 42  1  0
 24 43  1  0
 24 44  1  0
 24 45  1  0
M  ISO  8  25  13  26  13  27  13  28  13  29  14  30  14  31  14  32  14
M  ISO  8  33  14  34  14  35  14  36  14  37  13  38  13  39  13  40  13
M  ISO  5  41   8  42   8  43   8  44   8  45   8
M  END
>  <minimizedAffinity>  (1) 
-5.77799749

>  <minimizedRMSD>  (1) 
0.388998508

$$$$
