
     RDKit          3D

 41 45  0  0  1  0  0  0  0  0999 V2000
   46.7810   33.3150   42.6680 C   0  0  1  0  0  0  0  0  0  0  0  0
   46.8850   34.6830   42.1670 C   0  0  0  0  0  0  0  0  0  0  0  0
   48.1130   33.8530   42.1680 C   0  0  2  0  0  0  0  0  0  0  0  0
   48.5510   33.2830   40.8690 C   0  0  0  0  0  0  0  0  0  0  0  0
   49.4700   32.2630   40.7310 C   0  0  0  0  0  0  0  0  0  0  0  0
   49.8280   31.7850   39.4800 C   0  0  0  0  0  0  0  0  0  0  0  0
   49.2700   32.3240   38.3490 C   0  0  0  0  0  0  0  0  0  0  0  0
   49.5980   31.8710   37.1150 N   0  0  0  0  0  0  0  0  0  0  0  0
   49.0300   32.4170   36.0070 C   0  0  0  0  0  0  0  0  0  0  0  0
   48.0820   33.4670   36.0460 C   0  0  0  0  0  0  0  0  0  0  0  0
   47.7400   33.9350   37.2960 C   0  0  0  0  0  0  0  0  0  0  0  0
   48.3330   33.3630   38.4260 C   0  0  0  0  0  0  0  0  0  0  0  0
   48.0090   33.8040   39.6920 C   0  0  0  0  0  0  0  0  0  0  0  0
   45.8120   33.8790   44.9240 C   0  0  0  0  0  0  0  0  0  0  0  0
   46.6790   33.0480   44.1340 C   0  0  0  0  0  0  0  0  0  0  0  0
   47.3790   32.0560   44.7700 C   0  0  0  0  0  0  0  0  0  0  0  0
   47.2070   31.9210   46.1140 N   0  0  0  0  0  0  0  0  0  0  0  0
   46.3840   32.7140   46.8480 C   0  0  0  0  0  0  0  0  0  0  0  0
   45.6880   33.6920   46.2490 N   0  0  0  0  0  0  0  0  0  0  0  0
   46.2890   32.4560   48.3090 C   0  0  2  0  0  0  0  0  0  0  0  0
   46.8230   31.2480   48.9110 C   0  0  0  0  0  0  0  0  0  0  0  0
   45.3310   31.2780   48.6710 C   0  0  1  0  0  0  0  0  0  0  0  0
   44.4550   31.4480   49.7900 N   0  0  0  0  0  0  0  0  0  0  0  0
   46.1146   32.4719   42.4330 H   0  0  0  0  0  0  0  0  0  0  0  0
   46.7984   35.5266   42.8676 H   0  0  0  0  0  0  0  0  0  0  0  0
   46.3511   35.2571   41.3954 H   0  0  0  0  0  0  0  0  0  0  0  0
   49.1315   33.9814   42.5633 H   0  0  0  0  0  0  0  0  0  0  0  0
   49.9264   31.8215   41.6292 H   0  0  0  0  0  0  0  0  0  0  0  0
   50.5623   30.9705   39.3941 H   0  0  0  0  0  0  0  0  0  0  0  0
   49.3241   32.0200   35.0242 H   0  0  0  0  0  0  0  0  0  0  0  0
   47.6424   33.8864   35.1290 H   0  0  0  0  0  0  0  0  0  0  0  0
   47.0086   34.7495   37.4039 H   0  0  0  0  0  0  0  0  0  0  0  0
   47.2759   34.6193   39.7805 H   0  0  0  0  0  0  0  0  0  0  0  0
   45.2402   34.6818   44.4356 H   0  0  0  0  0  0  0  0  0  0  0  0
   48.0566   31.3916   44.2137 H   0  0  0  0  0  0  0  0  0  0  0  0
   46.4257   33.5179   48.5615 H   0  0  0  0  0  0  0  0  0  0  0  0
   47.4534   30.5776   48.3084 H   0  0  0  0  0  0  0  0  0  0  0  0
   47.4425   31.0557   49.7994 H   0  0  0  0  0  0  0  0  0  0  0  0
   44.5991   30.6462   48.1464 H   0  0  0  0  0  0  0  0  0  0  0  0
   44.9902   31.3441   50.6639 H   0  0  0  0  0  0  0  0  0  0  0  0
   44.0324   32.3867   49.7557 H   0  0  0  0  0  0  0  0  0  0  0  0
  1 15  1  0
  2  3  1  0
  2  1  1  0
  3  1  1  0
  4  3  1  0
  5  4  2  0
  6  5  1  0
  7 12  1  0
  7  6  2  0
  8  7  1  0
  9 10  1  0
  9  8  2  0
 10 11  2  0
 11 12  1  0
 12 13  2  0
 13  4  1  0
 14 19  2  0
 15 16  2  0
 15 14  1  0
 16 17  1  0
 17 18  2  0
 18 20  1  0
 19 18  1  0
 20 22  1  0
 20 21  1  0
 22 21  1  0
 22 23  1  0
  1 24  1  6
  2 25  1  0
  2 26  1  0
  3 27  1  1
  5 28  1  0
  6 29  1  0
  9 30  1  0
 10 31  1  0
 11 32  1  0
 13 33  1  0
 14 34  1  0
 16 35  1  0
 20 36  1  1
 21 37  1  0
 21 38  1  0
 22 39  1  6
 23 40  1  0
 23 41  1  0
M  ISO  8  24  13  25  13  26  13  27  13  28  14  29  14  30  14  31  14
M  ISO  8  32  14  33  14  34  14  35  14  36  13  37  13  38  13  39  13
M  ISO  2  40   5  41   5
M  END
>  <minimizedAffinity>  (1) 
-5.3832345

>  <minimizedRMSD>  (1) 
0.53882879

$$$$
