
     RDKit          3D

 15 15  0  0  0  0  0  0  0  0999 V2000
   44.9660   35.1350   44.0130 C   0  0  0  0  0  0  0  0  0  0  0  0
   45.7950   35.3790   42.8900 C   0  0  0  0  0  0  0  0  0  0  0  0
   46.9830   34.6300   42.8440 C   0  0  0  0  0  0  0  0  0  0  0  0
   47.2800   33.7350   43.8400 N   0  0  0  0  0  0  0  0  0  0  0  0
   46.4140   33.5650   44.8890 C   0  0  0  0  0  0  0  0  0  0  0  0
   45.2700   34.2620   44.9690 N   0  0  0  0  0  0  0  0  0  0  0  0
   43.7380   35.8360   44.1640 N   0  0  0  0  0  0  0  0  0  0  0  0
   47.8300   34.8840   41.6740 C   0  0  0  0  0  0  0  0  0  0  0  0
   48.8930   33.9840   41.6780 F   0  0  0  0  0  0  0  0  0  0  0  0
   48.3980   36.1190   41.8540 F   0  0  0  0  0  0  0  0  0  0  0  0
   47.1660   34.7390   40.4840 F   0  0  0  0  0  0  0  0  0  0  0  0
   45.5270   36.1048   42.1081 H   0  0  0  0  0  0  0  0  0  0  0  0
   46.6618   32.8429   45.6809 H   0  0  0  0  0  0  0  0  0  0  0  0
   43.4480   36.5253   43.4557 H   0  0  0  0  0  0  0  0  0  0  0  0
   43.1385   35.6544   44.9816 H   0  0  0  0  0  0  0  0  0  0  0  0
  1  7  1  0
  1  6  2  0
  2  1  1  0
  3  2  2  0
  3  4  1  0
  4  5  2  0
  5  6  1  0
  8  9  1  0
  8 10  1  0
  8  3  1  0
 11  8  1  0
  2 12  1  0
  5 13  1  0
  7 14  1  0
  7 15  1  0
M  ISO  2  12  14  13  14
M  END
>  <minimizedAffinity>  (1) 
-4.45493841

>  <minimizedRMSD>  (1) 
0.967993379

$$$$
