
     RDKit          3D

 40 44  0  0  1  0  0  0  0  0999 V2000
   46.7180   33.4270   43.0570 C   0  0  1  0  0  0  0  0  0  0  0  0
   46.9630   34.7990   42.6220 C   0  0  0  0  0  0  0  0  0  0  0  0
   48.1090   33.8590   42.6210 C   0  0  2  0  0  0  0  0  0  0  0  0
   48.5320   33.3090   41.3080 C   0  0  0  0  0  0  0  0  0  0  0  0
   49.3910   32.2400   41.1550 C   0  0  0  0  0  0  0  0  0  0  0  0
   49.7490   31.7860   39.8970 C   0  0  0  0  0  0  0  0  0  0  0  0
   49.2530   32.3970   38.7740 C   0  0  0  0  0  0  0  0  0  0  0  0
   49.5860   31.9700   37.5220 N   0  0  0  0  0  0  0  0  0  0  0  0
   49.0800   32.5870   36.4330 C   0  0  0  0  0  0  0  0  0  0  0  0
   48.1940   33.6910   36.4890 C   0  0  0  0  0  0  0  0  0  0  0  0
   47.8490   34.1320   37.7480 C   0  0  0  0  0  0  0  0  0  0  0  0
   48.3780   33.4860   38.8650 C   0  0  0  0  0  0  0  0  0  0  0  0
   48.0500   33.9020   40.1400 C   0  0  0  0  0  0  0  0  0  0  0  0
   45.5320   33.8150   45.2480 C   0  0  0  0  0  0  0  0  0  0  0  0
   46.5450   33.1100   44.5060 C   0  0  0  0  0  0  0  0  0  0  0  0
   47.3070   32.1870   45.1740 C   0  0  0  0  0  0  0  0  0  0  0  0
   47.0600   31.9930   46.4980 N   0  0  0  0  0  0  0  0  0  0  0  0
   46.0990   32.6680   47.1820 C   0  0  0  0  0  0  0  0  0  0  0  0
   45.3380   33.5770   46.5550 N   0  0  0  0  0  0  0  0  0  0  0  0
   45.9230   32.3590   48.6290 C   0  0  2  0  0  0  0  0  0  0  0  0
   46.5800   31.2210   49.2500 C   0  0  0  0  0  0  0  0  0  0  0  0
   45.1240   31.0440   48.8890 C   0  0  2  0  0  0  0  0  0  0  0  0
   44.8900   29.9440   47.4590 S   0  0  0  0  0  0  0  0  0  0  0  0
   45.9853   32.6604   42.7648 H   0  0  0  0  0  0  0  0  0  0  0  0
   46.5460   35.1490   41.6662 H   0  0  0  0  0  0  0  0  0  0  0  0
   46.7850   35.7869   43.0718 H   0  0  0  0  0  0  0  0  0  0  0  0
   49.1212   33.8736   43.0514 H   0  0  0  0  0  0  0  0  0  0  0  0
   49.7978   31.7406   42.0467 H   0  0  0  0  0  0  0  0  0  0  0  0
   50.4344   30.9313   39.7979 H   0  0  0  0  0  0  0  0  0  0  0  0
   49.3734   32.2097   35.4423 H   0  0  0  0  0  0  0  0  0  0  0  0
   47.8035   34.1692   35.5786 H   0  0  0  0  0  0  0  0  0  0  0  0
   47.1641   34.9840   37.8706 H   0  0  0  0  0  0  0  0  0  0  0  0
   47.3644   34.7561   40.2419 H   0  0  0  0  0  0  0  0  0  0  0  0
   44.9068   34.5609   44.7354 H   0  0  0  0  0  0  0  0  0  0  0  0
   48.0944   31.6203   44.6555 H   0  0  0  0  0  0  0  0  0  0  0  0
   45.8794   33.4212   48.9115 H   0  0  0  0  0  0  0  0  0  0  0  0
   47.3468   30.6675   48.6882 H   0  0  0  0  0  0  0  0  0  0  0  0
   47.1494   31.0922   50.1823 H   0  0  0  0  0  0  0  0  0  0  0  0
   44.1773   30.7944   49.3905 H   0  0  0  0  0  0  0  0  0  0  0  0
   44.6200   28.6748   47.8985 H   0  0  0  0  0  0  0  0  0  0  0  0
  1 15  1  0
  2  1  1  0
  3  2  1  0
  3  1  1  0
  4  3  1  0
  5  4  2  0
  6  5  1  0
  7 12  1  0
  7  6  2  0
  8  7  1  0
  9 10  1  0
  9  8  2  0
 10 11  2  0
 11 12  1  0
 12 13  2  0
 13  4  1  0
 14 19  2  0
 15 16  2  0
 15 14  1  0
 16 17  1  0
 17 18  2  0
 18 20  1  0
 19 18  1  0
 20 22  1  0
 20 21  1  0
 22 21  1  0
 23 22  1  0
  1 24  1  6
  2 25  1  0
  2 26  1  0
  3 27  1  1
  5 28  1  0
  6 29  1  0
  9 30  1  0
 10 31  1  0
 11 32  1  0
 13 33  1  0
 14 34  1  0
 16 35  1  0
 20 36  1  1
 21 37  1  0
 21 38  1  0
 22 39  1  1
 23 40  1  0
M  ISO  8  24  13  25  13  26  13  27  13  28  14  29  14  30  14  31  14
M  ISO  8  32  14  33  14  34  14  35  14  36  13  37  13  38  13  39  13
M  ISO  1  40  11
M  END
>  <minimizedAffinity>  (1) 
-5.5937233

>  <minimizedRMSD>  (1) 
0.181330055

$$$$
