
     RDKit          3D

 28 29  0  0  0  0  0  0  0  0999 V2000
   45.1960   34.6990   42.9580 C   0  0  0  0  0  0  0  0  0  0  0  0
   46.2000   35.1700   42.1020 C   0  0  0  0  0  0  0  0  0  0  0  0
   47.5090   34.7300   42.3770 C   0  0  0  0  0  0  0  0  0  0  0  0
   47.6880   33.8940   43.4310 N   0  0  0  0  0  0  0  0  0  0  0  0
   46.6990   33.4650   44.2220 C   0  0  0  0  0  0  0  0  0  0  0  0
   45.4430   33.8730   43.9850 N   0  0  0  0  0  0  0  0  0  0  0  0
   43.2510   34.4110   41.6700 C   0  0  0  0  0  0  0  0  0  0  0  0
   43.9710   33.5910   41.0140 O   0  0  0  0  0  0  0  0  0  0  0  0
   43.8400   35.0970   42.7600 N   0  0  0  0  0  0  0  0  0  0  0  0
   40.9200   33.4950   41.1680 C   0  0  0  0  0  0  0  0  0  0  0  0
   41.8750   34.4970   41.1600 C   0  0  0  0  0  0  0  0  0  0  0  0
   41.5940   35.7390   40.6300 C   0  0  0  0  0  0  0  0  0  0  0  0
   40.3210   35.9740   40.0950 C   0  0  0  0  0  0  0  0  0  0  0  0
   39.3600   34.9830   40.0940 C   0  0  0  0  0  0  0  0  0  0  0  0
   39.6700   33.7540   40.6300 C   0  0  0  0  0  0  0  0  0  0  0  0
   41.6390   31.2260   42.2220 N   0  0  0  0  0  0  0  0  0  0  0  0
   41.3190   32.2370   41.7410 C   0  0  0  0  0  0  0  0  0  0  0  0
   48.5400   35.2310   41.4770 C   0  0  0  0  0  0  0  0  0  0  0  0
   49.7040   34.4900   41.6470 F   0  0  0  0  0  0  0  0  0  0  0  0
   48.8560   36.5150   41.8840 F   0  0  0  0  0  0  0  0  0  0  0  0
   48.1980   35.1480   40.1610 F   0  0  0  0  0  0  0  0  0  0  0  0
   45.9783   35.8454   41.2625 H   0  0  0  0  0  0  0  0  0  0  0  0
   46.9131   32.7841   45.0590 H   0  0  0  0  0  0  0  0  0  0  0  0
   43.3509   35.7957   43.3375 H   0  0  0  0  0  0  0  0  0  0  0  0
   42.3567   36.5316   40.6275 H   0  0  0  0  0  0  0  0  0  0  0  0
   40.0841   36.9607   39.6703 H   0  0  0  0  0  0  0  0  0  0  0  0
   38.3623   35.1727   39.6715 H   0  0  0  0  0  0  0  0  0  0  0  0
   38.9087   32.9600   40.6313 H   0  0  0  0  0  0  0  0  0  0  0  0
  1  6  2  0
  2  3  2  0
  2  1  1  0
  3  4  1  0
  4  5  2  0
  6  5  1  0
  7  9  1  0
  8  7  2  0
  9  1  1  0
 10 17  1  0
 11 10  2  0
 11  7  1  0
 12 11  1  0
 13 12  2  0
 14 13  1  0
 14 15  2  0
 15 10  1  0
 17 16  3  0
 18 19  1  0
 18 20  1  0
 18  3  1  0
 21 18  1  0
  2 22  1  0
  5 23  1  0
  9 24  1  0
 12 25  1  0
 13 26  1  0
 14 27  1  0
 15 28  1  0
M  ISO  6  22  14  23  14  25  14  26  14  27  14  28  14
M  END
>  <minimizedAffinity>  (1) 
-6.38166904

>  <minimizedRMSD>  (1) 
1.05775905

$$$$
