
     RDKit          3D

 27 28  0  0  0  0  0  0  0  0999 V2000
   45.3530   34.6910   42.2380 C   0  0  0  0  0  0  0  0  0  0  0  0
   46.4850   35.1820   41.5610 C   0  0  0  0  0  0  0  0  0  0  0  0
   47.7300   34.9420   42.1690 C   0  0  0  0  0  0  0  0  0  0  0  0
   47.7450   34.2660   43.3430 N   0  0  0  0  0  0  0  0  0  0  0  0
   46.6310   33.8130   43.9560 C   0  0  0  0  0  0  0  0  0  0  0  0
   45.4290   34.0290   43.3980 N   0  0  0  0  0  0  0  0  0  0  0  0
   43.7960   34.0270   40.5990 C   0  0  0  0  0  0  0  0  0  0  0  0
   44.7240   33.2350   40.2470 O   0  0  0  0  0  0  0  0  0  0  0  0
   44.0460   34.8780   41.7140 N   0  0  0  0  0  0  0  0  0  0  0  0
   41.6820   32.1020   41.6230 Cl  0  0  0  0  0  0  0  0  0  0  0  0
   41.4700   33.2430   40.2950 C   0  0  0  0  0  0  0  0  0  0  0  0
   42.5020   34.0840   39.9010 C   0  0  0  0  0  0  0  0  0  0  0  0
   42.3000   34.9760   38.8420 C   0  0  0  0  0  0  0  0  0  0  0  0
   41.0740   35.0230   38.1860 C   0  0  0  0  0  0  0  0  0  0  0  0
   40.0410   34.1970   38.5640 C   0  0  0  0  0  0  0  0  0  0  0  0
   38.5080   34.2600   37.7410 Cl  0  0  0  0  0  0  0  0  0  0  0  0
   40.2640   33.3150   39.6220 C   0  0  0  0  0  0  0  0  0  0  0  0
   48.8820   35.4590   41.4500 C   0  0  0  0  0  0  0  0  0  0  0  0
   49.9900   34.6660   41.7520 F   0  0  0  0  0  0  0  0  0  0  0  0
   49.1720   36.7190   41.9650 F   0  0  0  0  0  0  0  0  0  0  0  0
   48.7250   35.4590   40.0950 F   0  0  0  0  0  0  0  0  0  0  0  0
   46.4004   35.7242   40.6077 H   0  0  0  0  0  0  0  0  0  0  0  0
   46.7076   33.2690   44.9090 H   0  0  0  0  0  0  0  0  0  0  0  0
   43.3619   35.5477   42.0941 H   0  0  0  0  0  0  0  0  0  0  0  0
   43.1151   35.6438   38.5264 H   0  0  0  0  0  0  0  0  0  0  0  0
   40.9290   35.7291   37.3551 H   0  0  0  0  0  0  0  0  0  0  0  0
   39.4461   32.6489   39.9339 H   0  0  0  0  0  0  0  0  0  0  0  0
  1  6  2  0
  2  3  2  0
  2  1  1  0
  3  4  1  0
  4  5  2  0
  6  5  1  0
  7  9  1  0
  8  7  2  0
  9  1  1  0
 11 10  1  0
 12 11  2  0
 12  7  1  0
 13 12  1  0
 14 15  1  0
 14 13  2  0
 15 17  2  0
 16 15  1  0
 17 11  1  0
 18 19  1  0
 18 20  1  0
 18  3  1  0
 21 18  1  0
  2 22  1  0
  5 23  1  0
  9 24  1  0
 13 25  1  0
 14 26  1  0
 17 27  1  0
M  ISO  5  22  14  23  14  25  14  26  14  27  14
M  END
>  <minimizedAffinity>  (1) 
-6.29059696

>  <minimizedRMSD>  (1) 
2.15706682

$$$$
