
     RDKit          3D

 29 30  0  0  0  0  0  0  0  0999 V2000
   45.1530   34.9260   42.9460 C   0  0  0  0  0  0  0  0  0  0  0  0
   46.2050   35.3050   42.0730 C   0  0  0  0  0  0  0  0  0  0  0  0
   47.4810   34.8220   42.3990 C   0  0  0  0  0  0  0  0  0  0  0  0
   47.6130   34.0480   43.4940 N   0  0  0  0  0  0  0  0  0  0  0  0
   46.5820   33.7140   44.2940 C   0  0  0  0  0  0  0  0  0  0  0  0
   45.3430   34.1600   44.0140 N   0  0  0  0  0  0  0  0  0  0  0  0
   43.2320   34.6470   41.6310 C   0  0  0  0  0  0  0  0  0  0  0  0
   43.9150   33.7710   41.0360 O   0  0  0  0  0  0  0  0  0  0  0  0
   43.8140   35.3720   42.6960 N   0  0  0  0  0  0  0  0  0  0  0  0
   41.9010   34.8280   41.1580 N   0  0  0  0  0  0  0  0  0  0  0  0
   41.4700   34.2950   39.8770 C   0  0  0  0  0  0  0  0  0  0  0  0
   40.4670   35.3360   39.4260 C   0  0  0  0  0  0  0  0  0  0  0  0
   40.2660   36.3010   40.5660 C   0  0  0  0  0  0  0  0  0  0  0  0
   40.7640   35.5080   41.7570 C   0  0  0  0  0  0  0  0  0  0  0  0
   48.5440   35.2270   41.4820 C   0  0  0  0  0  0  0  0  0  0  0  0
   49.6510   34.4100   41.6790 F   0  0  0  0  0  0  0  0  0  0  0  0
   48.9550   36.5010   41.8710 F   0  0  0  0  0  0  0  0  0  0  0  0
   48.1970   35.1490   40.1610 F   0  0  0  0  0  0  0  0  0  0  0  0
   46.0304   35.9403   41.1922 H   0  0  0  0  0  0  0  0  0  0  0  0
   46.7522   33.0776   45.1750 H   0  0  0  0  0  0  0  0  0  0  0  0
   43.3396   36.1201   43.2216 H   0  0  0  0  0  0  0  0  0  0  0  0
   42.3111   34.2184   39.1723 H   0  0  0  0  0  0  0  0  0  0  0  0
   41.0575   33.2770   39.9357 H   0  0  0  0  0  0  0  0  0  0  0  0
   40.8523   35.8710   38.5455 H   0  0  0  0  0  0  0  0  0  0  0  0
   39.5142   34.8600   39.1510 H   0  0  0  0  0  0  0  0  0  0  0  0
   40.8589   37.2162   40.4216 H   0  0  0  0  0  0  0  0  0  0  0  0
   39.2266   36.6454   40.6715 H   0  0  0  0  0  0  0  0  0  0  0  0
   40.0071   34.7957   42.1172 H   0  0  0  0  0  0  0  0  0  0  0  0
   41.0035   36.1115   42.6449 H   0  0  0  0  0  0  0  0  0  0  0  0
  1  6  2  0
  2  3  2  0
  2  1  1  0
  3  4  1  0
  4  5  2  0
  6  5  1  0
  7  9  1  0
  8  7  2  0
  9  1  1  0
 10  7  1  0
 10 14  1  0
 11 10  1  0
 12 11  1  0
 12 13  1  0
 13 14  1  0
 15 16  1  0
 15 17  1  0
 15  3  1  0
 18 15  1  0
  2 19  1  0
  5 20  1  0
  9 21  1  0
 11 22  1  0
 11 23  1  0
 12 24  1  0
 12 25  1  0
 13 26  1  0
 13 27  1  0
 14 28  1  0
 14 29  1  0
M  ISO  8  19  14  20  14  22  13  23  13  24  13  25  13  26  13  27  13
M  ISO  2  28  13  29  13
M  END
>  <minimizedAffinity>  (1) 
-6.39436913

>  <minimizedRMSD>  (1) 
0.744944632

$$$$
