
     RDKit          3D

 45 47  0  0  1  0  0  0  0  0999 V2000
   45.0270   34.6000   42.1290 C   0  0  0  0  0  0  0  0  0  0  0  0
   46.2060   35.1680   41.5780 C   0  0  0  0  0  0  0  0  0  0  0  0
   47.4230   34.6750   42.0660 C   0  0  0  0  0  0  0  0  0  0  0  0
   47.3840   33.7140   43.0070 N   0  0  0  0  0  0  0  0  0  0  0  0
   46.2400   33.1990   43.5050 C   0  0  0  0  0  0  0  0  0  0  0  0
   45.0510   33.6540   43.0550 N   0  0  0  0  0  0  0  0  0  0  0  0
   43.4400   34.5250   40.4030 C   0  0  0  0  0  0  0  0  0  0  0  0
   44.2700   33.7890   39.8340 O   0  0  0  0  0  0  0  0  0  0  0  0
   43.7530   35.0470   41.6840 N   0  0  0  0  0  0  0  0  0  0  0  0
   42.2150   34.7940   39.7150 N   0  0  0  0  0  0  0  0  0  0  0  0
   42.1140   34.5560   38.2890 C   0  0  0  0  0  0  0  0  0  0  0  0
   41.1310   35.6030   37.8480 C   0  0  0  0  0  0  0  0  0  0  0  0
   40.6230   36.2840   39.0860 C   0  0  0  0  0  0  0  0  0  0  0  0
   40.9630   35.3060   40.1780 C   0  0  1  0  0  0  0  0  0  0  0  0
   39.9150   34.3560   40.5620 C   0  0  0  0  0  0  0  0  0  0  0  0
   39.5540   33.2830   39.5880 C   0  0  0  0  0  0  0  0  0  0  0  0
   38.3510   32.5360   40.1920 C   0  0  0  0  0  0  0  0  0  0  0  0
   38.8360   31.7410   41.3790 C   0  0  0  0  0  0  0  0  0  0  0  0
   40.1770   32.2050   41.8400 C   0  0  0  0  0  0  0  0  0  0  0  0
   40.1960   33.7250   41.8920 C   0  0  0  0  0  0  0  0  0  0  0  0
   48.6200   35.2820   41.4800 C   0  0  0  0  0  0  0  0  0  0  0  0
   49.7300   34.5100   41.8230 F   0  0  0  0  0  0  0  0  0  0  0  0
   48.8040   36.5040   42.1180 F   0  0  0  0  0  0  0  0  0  0  0  0
   48.5840   35.3600   40.1140 F   0  0  0  0  0  0  0  0  0  0  0  0
   46.1658   35.9534   40.8089 H   0  0  0  0  0  0  0  0  0  0  0  0
   46.2761   32.4127   44.2734 H   0  0  0  0  0  0  0  0  0  0  0  0
   43.1357   35.6707   42.2233 H   0  0  0  0  0  0  0  0  0  0  0  0
   43.0870   34.6921   37.7943 H   0  0  0  0  0  0  0  0  0  0  0  0
   41.8019   33.5313   38.0386 H   0  0  0  0  0  0  0  0  0  0  0  0
   41.6273   36.3338   37.1925 H   0  0  0  0  0  0  0  0  0  0  0  0
   40.3029   35.1486   37.2844 H   0  0  0  0  0  0  0  0  0  0  0  0
   41.1325   37.2459   39.2448 H   0  0  0  0  0  0  0  0  0  0  0  0
   39.5503   36.5231   39.0385 H   0  0  0  0  0  0  0  0  0  0  0  0
   41.0458   35.7582   41.1773 H   0  0  0  0  0  0  0  0  0  0  0  0
   39.0328   35.0120   40.5977 H   0  0  0  0  0  0  0  0  0  0  0  0
   40.4000   32.5936   39.4503 H   0  0  0  0  0  0  0  0  0  0  0  0
   39.3080   33.7049   38.6023 H   0  0  0  0  0  0  0  0  0  0  0  0
   37.5879   33.2593   40.5152 H   0  0  0  0  0  0  0  0  0  0  0  0
   37.9055   31.8654   39.4425 H   0  0  0  0  0  0  0  0  0  0  0  0
   38.1162   31.8547   42.2030 H   0  0  0  0  0  0  0  0  0  0  0  0
   38.9222   30.6873   41.0753 H   0  0  0  0  0  0  0  0  0  0  0  0
   40.3802   31.8010   42.8427 H   0  0  0  0  0  0  0  0  0  0  0  0
   40.9484   31.8519   41.1398 H   0  0  0  0  0  0  0  0  0  0  0  0
   41.1891   34.0524   42.2334 H   0  0  0  0  0  0  0  0  0  0  0  0
   39.4013   34.0423   42.5832 H   0  0  0  0  0  0  0  0  0  0  0  0
  1  6  2  0
  2  3  2  0
  2  1  1  0
  3  4  1  0
  4  5  2  0
  6  5  1  0
  7  9  1  0
  8  7  2  0
  9  1  1  0
 10 14  1  0
 10  7  1  0
 11 10  1  0
 12 11  1  0
 12 13  1  0
 13 14  1  0
 14 15  1  0
 15 20  1  0
 16 17  1  0
 16 15  1  0
 17 18  1  0
 18 19  1  0
 19 20  1  0
 21 22  1  0
 21  3  1  0
 21 23  1  0
 24 21  1  0
  2 25  1  0
  5 26  1  0
  9 27  1  0
 11 28  1  0
 11 29  1  0
 12 30  1  0
 12 31  1  0
 13 32  1  0
 13 33  1  0
 14 34  1  1
 15 35  1  0
 16 36  1  0
 16 37  1  0
 17 38  1  0
 17 39  1  0
 18 40  1  0
 18 41  1  0
 19 42  1  0
 19 43  1  0
 20 44  1  0
 20 45  1  0
M  ISO  8  25  14  26  14  28  13  29  13  30  13  31  13  32  13  33  13
M  ISO  8  34  13  35  13  36  13  37  13  38  13  39  13  40  13  41  13
M  ISO  4  42  13  43  13  44  13  45  13
M  END
>  <minimizedAffinity>  (1) 
-6.67339706

>  <minimizedRMSD>  (1) 
1.63926208

$$$$
