
     RDKit          3D

 46 49  0  0  1  0  0  0  0  0999 V2000
   45.4590   34.4250   42.1870 C   0  0  0  0  0  0  0  0  0  0  0  0
   46.5450   35.2160   41.7140 C   0  0  0  0  0  0  0  0  0  0  0  0
   47.8300   34.8020   42.1140 C   0  0  0  0  0  0  0  0  0  0  0  0
   47.9300   33.7150   42.8940 N   0  0  0  0  0  0  0  0  0  0  0  0
   46.8700   32.9970   43.3160 C   0  0  0  0  0  0  0  0  0  0  0  0
   45.6230   33.3640   42.9540 N   0  0  0  0  0  0  0  0  0  0  0  0
   43.8350   34.4310   40.4910 C   0  0  0  0  0  0  0  0  0  0  0  0
   44.7620   33.9130   39.7790 O   0  0  0  0  0  0  0  0  0  0  0  0
   44.1150   34.7780   41.8280 N   0  0  0  0  0  0  0  0  0  0  0  0
   42.5740   34.6210   39.8760 N   0  0  0  0  0  0  0  0  0  0  0  0
   42.4650   34.5370   38.4070 C   0  0  0  0  0  0  0  0  0  0  0  0
   41.3460   35.4890   38.1160 C   0  0  0  0  0  0  0  0  0  0  0  0
   40.8380   35.9560   39.4490 C   0  0  0  0  0  0  0  0  0  0  0  0
   41.2680   34.8740   40.4100 C   0  0  1  0  0  0  0  0  0  0  0  0
   39.7950   33.0630   41.4950 C   0  0  0  0  0  0  0  0  0  0  0  0
   39.8250   33.8450   42.4700 O   0  0  0  0  0  0  0  0  0  0  0  0
   40.4730   33.6540   40.3610 N   0  0  0  0  0  0  0  0  0  0  0  0
   37.8790   31.4850   41.0650 C   0  0  0  0  0  0  0  0  0  0  0  0
   39.1970   31.7620   41.4470 C   0  0  0  0  0  0  0  0  0  0  0  0
   40.0370   30.7240   41.8180 C   0  0  0  0  0  0  0  0  0  0  0  0
   39.6150   29.3970   41.8270 C   0  0  0  0  0  0  0  0  0  0  0  0
   40.1970   28.2130   42.1340 N   0  0  0  0  0  0  0  0  0  0  0  0
   39.2380   27.2690   41.9350 C   0  0  0  0  0  0  0  0  0  0  0  0
   38.0900   27.8410   41.5170 N   0  0  0  0  0  0  0  0  0  0  0  0
   38.3130   29.1480   41.4480 C   0  0  0  0  0  0  0  0  0  0  0  0
   37.4590   30.1610   41.0750 C   0  0  0  0  0  0  0  0  0  0  0  0
   48.9230   35.6340   41.6120 C   0  0  0  0  0  0  0  0  0  0  0  0
   50.1320   35.0700   42.0110 F   0  0  0  0  0  0  0  0  0  0  0  0
   48.8410   36.8570   42.2970 F   0  0  0  0  0  0  0  0  0  0  0  0
   48.9320   35.7860   40.2590 F   0  0  0  0  0  0  0  0  0  0  0  0
   46.3892   36.0974   41.0746 H   0  0  0  0  0  0  0  0  0  0  0  0
   47.0213   32.1138   43.9541 H   0  0  0  0  0  0  0  0  0  0  0  0
   43.4419   35.2270   42.4653 H   0  0  0  0  0  0  0  0  0  0  0  0
   43.3975   34.8571   37.9192 H   0  0  0  0  0  0  0  0  0  0  0  0
   42.2841   33.5174   38.0360 H   0  0  0  0  0  0  0  0  0  0  0  0
   41.7143   36.3424   37.5277 H   0  0  0  0  0  0  0  0  0  0  0  0
   40.5502   35.0060   37.5300 H   0  0  0  0  0  0  0  0  0  0  0  0
   41.2890   36.9215   39.7217 H   0  0  0  0  0  0  0  0  0  0  0  0
   39.7494   36.1141   39.4528 H   0  0  0  0  0  0  0  0  0  0  0  0
   41.1864   35.1746   41.4650 H   0  0  0  0  0  0  0  0  0  0  0  0
   40.3871   33.1769   39.4522 H   0  0  0  0  0  0  0  0  0  0  0  0
   37.1953   32.2930   40.7654 H   0  0  0  0  0  0  0  0  0  0  0  0
   41.0705   30.9559   42.1150 H   0  0  0  0  0  0  0  0  0  0  0  0
   41.1646   28.0594   42.4520 H   0  0  0  0  0  0  0  0  0  0  0  0
   39.3790   26.1896   42.0929 H   0  0  0  0  0  0  0  0  0  0  0  0
   36.4275   29.9182   40.7801 H   0  0  0  0  0  0  0  0  0  0  0  0
  1  6  2  0
  2  3  2  0
  2  1  1  0
  3  4  1  0
  4  5  2  0
  6  5  1  0
  7  9  1  0
  8  7  2  0
  9  1  1  0
 10 14  1  0
 10  7  1  0
 11 10  1  0
 12 11  1  0
 12 13  1  0
 13 14  1  0
 15 16  2  0
 17 14  1  0
 17 15  1  0
 18 26  2  0
 18 19  1  0
 19 15  1  0
 19 20  2  0
 20 21  1  0
 21 22  1  0
 23 22  1  0
 24 23  2  0
 25 24  1  0
 25 21  2  0
 26 25  1  0
 27 28  1  0
 27  3  1  0
 27 29  1  0
 30 27  1  0
  2 31  1  0
  5 32  1  0
  9 33  1  0
 11 34  1  0
 11 35  1  0
 12 36  1  0
 12 37  1  0
 13 38  1  0
 13 39  1  0
 14 40  1  1
 17 41  1  0
 18 42  1  0
 20 43  1  0
 22 44  1  0
 23 45  1  0
 26 46  1  0
M  ISO  8  31  14  32  14  34  13  35  13  36  13  37  13  38  13  39  13
M  ISO  6  40  13  42  14  43  14  44   9  45  14  46  14
M  END
>  <minimizedAffinity>  (1) 
-7.20890331

>  <minimizedRMSD>  (1) 
1.2839663

$$$$
