
     RDKit          3D

 34 35  0  0  1  0  0  0  0  0999 V2000
   45.3250   34.6930   42.3360 C   0  0  0  0  0  0  0  0  0  0  0  0
   46.4560   35.2300   41.6540 C   0  0  0  0  0  0  0  0  0  0  0  0
   47.7140   34.9320   42.2130 C   0  0  0  0  0  0  0  0  0  0  0  0
   47.7530   34.1810   43.3220 N   0  0  0  0  0  0  0  0  0  0  0  0
   46.6480   33.6920   43.9330 C   0  0  0  0  0  0  0  0  0  0  0  0
   45.4260   33.9570   43.4280 N   0  0  0  0  0  0  0  0  0  0  0  0
   43.7370   34.1710   40.6910 C   0  0  0  0  0  0  0  0  0  0  0  0
   44.6510   33.4050   40.2300 O   0  0  0  0  0  0  0  0  0  0  0  0
   44.0060   34.9490   41.8340 N   0  0  0  0  0  0  0  0  0  0  0  0
   42.4970   34.1820   40.0060 N   0  0  0  0  0  0  0  0  0  0  0  0
   42.4090   33.6090   38.6480 C   0  0  0  0  0  0  0  0  0  0  0  0
   41.3420   34.4500   38.0160 C   0  0  0  0  0  0  0  0  0  0  0  0
   40.8340   35.3580   39.0960 C   0  0  0  0  0  0  0  0  0  0  0  0
   41.1930   34.6470   40.3780 C   0  0  1  0  0  0  0  0  0  0  0  0
   38.8950   33.5270   40.6520 C   0  0  0  0  0  0  0  0  0  0  0  0
   38.5000   34.5400   40.0290 O   0  0  0  0  0  0  0  0  0  0  0  0
   40.3430   33.5140   40.7120 N   0  0  0  0  0  0  0  0  0  0  0  0
   38.1220   32.5550   41.2110 O   0  0  0  0  0  0  0  0  0  0  0  0
   48.8540   35.4950   41.4920 C   0  0  0  0  0  0  0  0  0  0  0  0
   49.9940   34.7650   41.8090 F   0  0  0  0  0  0  0  0  0  0  0  0
   49.0740   36.7780   42.0240 F   0  0  0  0  0  0  0  0  0  0  0  0
   48.7060   35.5010   40.1380 F   0  0  0  0  0  0  0  0  0  0  0  0
   46.3523   35.8409   40.7451 H   0  0  0  0  0  0  0  0  0  0  0  0
   46.7471   33.0789   44.8409 H   0  0  0  0  0  0  0  0  0  0  0  0
   43.3421   35.6149   42.2545 H   0  0  0  0  0  0  0  0  0  0  0  0
   43.3641   33.7074   38.1113 H   0  0  0  0  0  0  0  0  0  0  0  0
   42.1853   32.5320   38.6376 H   0  0  0  0  0  0  0  0  0  0  0  0
   41.7614   35.0396   37.1874 H   0  0  0  0  0  0  0  0  0  0  0  0
   40.5347   33.8293   37.6001 H   0  0  0  0  0  0  0  0  0  0  0  0
   41.3267   36.3401   39.0436 H   0  0  0  0  0  0  0  0  0  0  0  0
   39.7546   35.5516   39.0100 H   0  0  0  0  0  0  0  0  0  0  0  0
   41.1042   35.2868   41.2684 H   0  0  0  0  0  0  0  0  0  0  0  0
   40.8024   32.6423   41.0119 H   0  0  0  0  0  0  0  0  0  0  0  0
   37.1357   32.6073   41.1439 H   0  0  0  0  0  0  0  0  0  0  0  0
  1  6  2  0
  2  3  2  0
  2  1  1  0
  3  4  1  0
  4  5  2  0
  6  5  1  0
  7  9  1  0
  8  7  2  0
  9  1  1  0
 10 14  1  0
 10  7  1  0
 11 10  1  0
 12 11  1  0
 12 13  1  0
 13 14  1  0
 14 17  1  0
 15 17  1  0
 15 18  1  0
 16 15  2  0
 19 20  1  0
 19 21  1  0
 19  3  1  0
 22 19  1  0
  2 23  1  0
  5 24  1  0
  9 25  1  0
 11 26  1  0
 11 27  1  0
 12 28  1  0
 12 29  1  0
 13 30  1  0
 13 31  1  0
 14 32  1  1
 17 33  1  0
 18 34  1  0
M  ISO  8  23  14  24  14  26  13  27  13  28  13  29  13  30  13  31  13
M  ISO  2  32  13  34   3
M  END
>  <minimizedAffinity>  (1) 
-6.83766365

>  <minimizedRMSD>  (1) 
0.0620710775

$$$$
