
     RDKit          3D

 14 14  0  0  0  0  0  0  0  0999 V2000
   44.5320   36.0440   44.5670 C   0  0  0  0  0  0  0  0  0  0  0  0
   45.2490   36.0140   43.3520 C   0  0  0  0  0  0  0  0  0  0  0  0
   46.1390   34.9540   43.1480 C   0  0  0  0  0  0  0  0  0  0  0  0
   46.2800   34.0090   44.1080 N   0  0  0  0  0  0  0  0  0  0  0  0
   45.5710   34.0680   45.2720 C   0  0  0  0  0  0  0  0  0  0  0  0
   44.7120   35.0780   45.4860 N   0  0  0  0  0  0  0  0  0  0  0  0
   46.3870   34.1950   40.7890 C   0  0  0  0  0  0  0  0  0  0  0  0
   45.2150   33.7280   40.9330 O   0  0  0  0  0  0  0  0  0  0  0  0
   46.8990   34.8510   41.9510 N   0  0  0  0  0  0  0  0  0  0  0  0
   43.8224   36.8612   44.7637 H   0  0  0  0  0  0  0  0  0  0  0  0
   45.1129   36.7970   42.5915 H   0  0  0  0  0  0  0  0  0  0  0  0
   45.7030   33.2877   46.0360 H   0  0  0  0  0  0  0  0  0  0  0  0
   46.9575   34.1028   39.8531 H   0  0  0  0  0  0  0  0  0  0  0  0
   47.8438   35.2600   41.9203 H   0  0  0  0  0  0  0  0  0  0  0  0
  1  6  2  0
  2  1  1  0
  3  2  2  0
  3  4  1  0
  4  5  2  0
  5  6  1  0
  7  8  2  0
  7  9  1  0
  9  3  1  0
  1 10  1  0
  2 11  1  0
  5 12  1  0
  7 13  1  0
  9 14  1  0
M  ISO  4  10  14  11  14  12  14  13   6
M  END
>  <minimizedAffinity>  (1) 
-3.23024726

>  <minimizedRMSD>  (1) 
0.541555643

$$$$
