
     RDKit          3D

 26 28  0  0  1  0  0  0  0  0999 V2000
   46.9830   34.8610   42.7400 C   0  0  1  0  0  0  0  0  0  0  0  0
   45.5820   35.2420   42.9130 C   0  0  2  0  0  0  0  0  0  0  0  0
   46.1550   34.2250   43.8220 C   0  0  0  0  0  0  0  0  0  0  0  0
   47.7850   34.6610   40.3900 C   0  0  0  0  0  0  0  0  0  0  0  0
   47.4320   34.0310   41.6040 C   0  0  0  0  0  0  0  0  0  0  0  0
   47.5250   32.6390   41.6400 C   0  0  0  0  0  0  0  0  0  0  0  0
   47.9430   31.9770   40.5200 N   0  0  0  0  0  0  0  0  0  0  0  0
   48.2720   32.6160   39.3790 C   0  0  0  0  0  0  0  0  0  0  0  0
   48.1860   33.9540   39.3330 N   0  0  0  0  0  0  0  0  0  0  0  0
   44.4540   34.7690   42.1010 C   0  0  0  0  0  0  0  0  0  0  0  0
   43.7390   35.5530   41.1840 C   0  0  0  0  0  0  0  0  0  0  0  0
   42.6830   35.0790   40.4360 C   0  0  0  0  0  0  0  0  0  0  0  0
   42.2870   33.7660   40.5790 C   0  0  0  0  0  0  0  0  0  0  0  0
   42.9840   32.9970   41.4740 C   0  0  0  0  0  0  0  0  0  0  0  0
   44.0020   33.5030   42.1780 N   0  0  0  0  0  0  0  0  0  0  0  0
   47.9246   35.4272   42.6863 H   0  0  0  0  0  0  0  0  0  0  0  0
   45.1273   36.2426   42.9579 H   0  0  0  0  0  0  0  0  0  0  0  0
   45.8487   33.1719   43.7378 H   0  0  0  0  0  0  0  0  0  0  0  0
   46.2439   34.1068   44.9120 H   0  0  0  0  0  0  0  0  0  0  0  0
   47.7279   35.7570   40.3151 H   0  0  0  0  0  0  0  0  0  0  0  0
   47.2663   32.0844   42.5540 H   0  0  0  0  0  0  0  0  0  0  0  0
   48.6062   32.0481   38.4982 H   0  0  0  0  0  0  0  0  0  0  0  0
   44.0374   36.6038   41.0547 H   0  0  0  0  0  0  0  0  0  0  0  0
   42.1606   35.7424   39.7310 H   0  0  0  0  0  0  0  0  0  0  0  0
   41.4478   33.3535   39.9997 H   0  0  0  0  0  0  0  0  0  0  0  0
   42.7006   31.9436   41.6159 H   0  0  0  0  0  0  0  0  0  0  0  0
  1  2  1  0
  1  3  1  0
  2  3  1  0
  4  5  2  0
  5  6  1  0
  5  1  1  0
  7  6  2  0
  8  7  1  0
  9  8  2  0
  9  4  1  0
 10 15  1  0
 10  2  1  0
 11 10  2  0
 12 13  2  0
 12 11  1  0
 13 14  1  0
 14 15  2  0
  1 16  1  1
  2 17  1  1
  3 18  1  0
  3 19  1  0
  4 20  1  0
  6 21  1  0
  8 22  1  0
 11 23  1  0
 12 24  1  0
 13 25  1  0
 14 26  1  0
M  ISO  8  16  13  17  13  18  13  19  13  20  14  21  14  22  14  23  14
M  ISO  3  24  14  25  14  26  14
M  END
>  <minimizedAffinity>  (1) 
-3.88414073

>  <minimizedRMSD>  (1) 
5.29604101

$$$$
