
     RDKit          3D

 16 16  0  0  0  0  0  0  0  0999 V2000
   44.5090   36.0530   44.5880 C   0  0  0  0  0  0  0  0  0  0  0  0
   45.2110   36.0210   43.3620 C   0  0  0  0  0  0  0  0  0  0  0  0
   46.0960   34.9650   43.1530 C   0  0  0  0  0  0  0  0  0  0  0  0
   46.2610   34.0180   44.1030 N   0  0  0  0  0  0  0  0  0  0  0  0
   45.5690   34.0760   45.2790 C   0  0  0  0  0  0  0  0  0  0  0  0
   44.7150   35.0820   45.4950 N   0  0  0  0  0  0  0  0  0  0  0  0
   46.3210   34.1760   40.7870 C   0  0  0  0  0  0  0  0  0  0  0  0
   45.1840   33.6590   40.9760 O   0  0  0  0  0  0  0  0  0  0  0  0
   46.8360   34.8800   41.9300 N   0  0  0  0  0  0  0  0  0  0  0  0
   47.2440   34.2400   39.7070 N   0  0  0  0  0  0  0  0  0  0  0  0
   43.7991   36.8664   44.7988 H   0  0  0  0  0  0  0  0  0  0  0  0
   45.0643   36.8011   42.6005 H   0  0  0  0  0  0  0  0  0  0  0  0
   45.7134   33.2993   46.0444 H   0  0  0  0  0  0  0  0  0  0  0  0
   47.7586   35.3337   41.8677 H   0  0  0  0  0  0  0  0  0  0  0  0
   48.1345   34.7451   39.8199 H   0  0  0  0  0  0  0  0  0  0  0  0
   47.0220   33.7813   38.8119 H   0  0  0  0  0  0  0  0  0  0  0  0
  1  6  2  0
  2  1  1  0
  3  2  2  0
  3  4  1  0
  4  5  2  0
  5  6  1  0
  7  8  2  0
  7  9  1  0
  9  3  1  0
 10  7  1  0
  1 11  1  0
  2 12  1  0
  5 13  1  0
  9 14  1  0
 10 15  1  0
 10 16  1  0
M  ISO  3  11  14  12  14  13  14
M  END
>  <minimizedAffinity>  (1) 
-3.6217978

>  <minimizedRMSD>  (1) 
0.0530490503

$$$$
