
     RDKit          3D

 34 36  0  0  1  0  0  0  0  0999 V2000
   49.1660   30.3740   40.5520 C   0  0  0  0  0  0  0  0  0  0  0  0
   49.7050   31.5730   40.4130 C   0  0  0  0  0  0  0  0  0  0  0  0
   48.8880   32.7300   40.3350 N   0  0  0  0  0  0  0  0  0  0  0  0
   48.6790   34.0900   40.6420 C   0  0  0  0  0  0  0  0  0  0  0  0
   49.3550   35.0270   41.1810 O   0  0  0  0  0  0  0  0  0  0  0  0
   47.2960   34.1150   40.0980 C   0  0  1  0  0  0  0  0  0  0  0  0
   47.6020   32.7310   39.6540 C   0  0  2  0  0  0  0  0  0  0  0  0
   46.6220   31.4250   40.4350 S   0  0  0  0  0  0  0  0  0  0  0  0
   47.7280   30.0320   40.6540 C   0  0  0  0  0  0  0  0  0  0  0  0
   46.3130   34.2990   41.1640 C   0  0  0  0  0  0  0  0  0  0  0  0
   45.0570   34.2610   41.1440 O   0  0  0  0  0  0  0  0  0  0  0  0
   46.8750   34.5700   42.4520 N   0  0  0  0  0  0  0  0  0  0  0  0
   44.4360   36.0610   44.8230 C   0  0  0  0  0  0  0  0  0  0  0  0
   45.2210   35.8980   43.6710 C   0  0  0  0  0  0  0  0  0  0  0  0
   46.0560   34.7910   43.5940 C   0  0  0  0  0  0  0  0  0  0  0  0
   46.0900   33.9160   44.6140 N   0  0  0  0  0  0  0  0  0  0  0  0
   45.3190   34.0930   45.7290 C   0  0  0  0  0  0  0  0  0  0  0  0
   44.5060   35.1630   45.8120 N   0  0  0  0  0  0  0  0  0  0  0  0
   50.1350   29.2520   40.6160 C   0  0  0  0  0  0  0  0  0  0  0  0
   51.1540   31.7610   40.3300 C   0  0  0  0  0  0  0  0  0  0  0  0
   51.7970   31.6910   39.2530 O   0  0  0  0  0  0  0  0  0  0  0  0
   52.1320   32.0340   41.2690 O   0  0  0  0  0  0  0  0  0  0  0  0
   46.8829   34.8475   39.3889 H   0  0  0  0  0  0  0  0  0  0  0  0
   47.4795   32.5427   38.5772 H   0  0  0  0  0  0  0  0  0  0  0  0
   47.4963   29.2833   39.8821 H   0  0  0  0  0  0  0  0  0  0  0  0
   47.5647   29.6573   41.6753 H   0  0  0  0  0  0  0  0  0  0  0  0
   47.8992   34.6060   42.5548 H   0  0  0  0  0  0  0  0  0  0  0  0
   43.7635   36.9268   44.9126 H   0  0  0  0  0  0  0  0  0  0  0  0
   45.1760   36.6286   42.8499 H   0  0  0  0  0  0  0  0  0  0  0  0
   45.3626   33.3658   46.5532 H   0  0  0  0  0  0  0  0  0  0  0  0
   50.3452   29.0086   41.6679 H   0  0  0  0  0  0  0  0  0  0  0  0
   49.7093   28.3708   40.1138 H   0  0  0  0  0  0  0  0  0  0  0  0
   51.0688   29.5449   40.1138 H   0  0  0  0  0  0  0  0  0  0  0  0
   53.0770   32.1233   40.9878 H   0  0  0  0  0  0  0  0  0  0  0  0
  1 19  1  0
  1  9  1  0
  2  1  2  0
  3  2  1  0
  3  4  1  0
  4  5  2  0
  6  4  1  0
  6 10  1  0
  7  6  1  0
  7  3  1  0
  7  8  1  0
  8  9  1  0
 10 12  1  0
 11 10  2  0
 12 15  1  0
 13 18  2  0
 14 13  1  0
 15 14  2  0
 15 16  1  0
 16 17  2  0
 17 18  1  0
 20  2  1  0
 20 22  1  0
 21 20  2  0
  6 23  1  6
  7 24  1  6
  9 25  1  0
  9 26  1  0
 12 27  1  0
 13 28  1  0
 14 29  1  0
 17 30  1  0
 19 31  1  0
 19 32  1  0
 19 33  1  0
 22 34  1  0
M  ISO  8  23  13  24  13  25  13  26  13  28  14  29  14  30  14  31   8
M  ISO  3  32   8  33   8  34   3
M  END
>  <minimizedAffinity>  (1) 
-4.86658573

>  <minimizedRMSD>  (1) 
1.21005785

$$$$
