
     RDKit          3D

 19 20  0  0  1  0  0  0  0  0999 V2000
   48.2230   33.7010   42.0140 C   0  0  1  0  0  0  0  0  0  0  0  0
   49.5870   34.2030   42.1340 C   0  0  2  0  0  0  0  0  0  0  0  0
   49.3130   32.7890   42.5340 C   0  0  0  0  0  0  0  0  0  0  0  0
   46.3330   35.2200   42.6240 C   0  0  0  0  0  0  0  0  0  0  0  0
   47.1470   34.1060   42.9470 C   0  0  0  0  0  0  0  0  0  0  0  0
   46.8880   33.4650   44.1580 C   0  0  0  0  0  0  0  0  0  0  0  0
   45.8860   33.9380   44.9470 N   0  0  0  0  0  0  0  0  0  0  0  0
   45.1390   34.9920   44.6060 C   0  0  0  0  0  0  0  0  0  0  0  0
   45.3550   35.6510   43.4330 N   0  0  0  0  0  0  0  0  0  0  0  0
   49.9190   35.1380   43.1550 N   0  0  0  0  0  0  0  0  0  0  0  0
   47.4966   33.6892   41.1881 H   0  0  0  0  0  0  0  0  0  0  0  0
   50.2757   34.6957   41.4320 H   0  0  0  0  0  0  0  0  0  0  0  0
   49.3345   32.4976   43.5945 H   0  0  0  0  0  0  0  0  0  0  0  0
   49.7115   31.8004   42.2622 H   0  0  0  0  0  0  0  0  0  0  0  0
   46.5099   35.7496   41.6762 H   0  0  0  0  0  0  0  0  0  0  0  0
   47.4826   32.5935   44.4693 H   0  0  0  0  0  0  0  0  0  0  0  0
   44.3395   35.3321   45.2807 H   0  0  0  0  0  0  0  0  0  0  0  0
   49.7660   34.7072   44.0780 H   0  0  0  0  0  0  0  0  0  0  0  0
   50.9081   35.4102   43.0628 H   0  0  0  0  0  0  0  0  0  0  0  0
  1  2  1  0
  1  3  1  0
  1  5  1  0
  2  3  1  0
  2 10  1  0
  4  5  2  0
  4  9  1  0
  5  6  1  0
  6  7  2  0
  8  7  1  0
  9  8  2  0
  1 11  1  6
  2 12  1  6
  3 13  1  0
  3 14  1  0
  4 15  1  0
  6 16  1  0
  8 17  1  0
 10 18  1  0
 10 19  1  0
M  ISO  8  11  13  12  13  13  13  14  13  15  14  16  14  17  14  18   5
M  ISO  1  19   5
M  END
>  <minimizedAffinity>  (1) 
-3.78456545

>  <minimizedRMSD>  (1) 
1.33964992

$$$$
