
     RDKit          3D

 45 48  0  0  1  0  0  0  0  0999 V2000
   47.1300   30.7040   41.5490 C   0  0  0  0  0  0  0  0  0  0  0  0
   47.6160   31.4890   40.5870 C   0  0  0  0  0  0  0  0  0  0  0  0
   46.8250   31.8200   39.4590 N   0  0  0  0  0  0  0  0  0  0  0  0
   46.4260   32.7530   38.4750 C   0  0  0  0  0  0  0  0  0  0  0  0
   46.7900   33.9200   38.1270 O   0  0  0  0  0  0  0  0  0  0  0  0
   45.3750   31.9220   37.9140 C   0  0  1  0  0  0  0  0  0  0  0  0
   45.8950   30.8790   38.8720 C   0  0  2  0  0  0  0  0  0  0  0  0
   44.7700   30.3460   40.1620 S   0  0  0  0  0  0  0  0  0  0  0  0
   45.7790   30.0780   41.6210 C   0  0  0  0  0  0  0  0  0  0  0  0
   44.0330   32.4490   38.1770 C   0  0  0  0  0  0  0  0  0  0  0  0
   42.8990   32.0200   37.8900 O   0  0  0  0  0  0  0  0  0  0  0  0
   44.0380   33.6960   38.9050 N   0  0  0  0  0  0  0  0  0  0  0  0
   41.0340   35.8700   38.6430 C   0  0  0  0  0  0  0  0  0  0  0  0
   42.2300   35.2370   38.2760 C   0  0  0  0  0  0  0  0  0  0  0  0
   42.8320   34.3810   39.1810 C   0  0  0  0  0  0  0  0  0  0  0  0
   42.2510   34.1840   40.3830 N   0  0  0  0  0  0  0  0  0  0  0  0
   41.0850   34.8070   40.7280 C   0  0  0  0  0  0  0  0  0  0  0  0
   40.5000   35.6440   39.8370 N   0  0  0  0  0  0  0  0  0  0  0  0
   48.0630   30.4350   42.6710 C   0  0  0  0  0  0  0  0  0  0  0  0
   48.9630   32.0300   40.6560 C   0  0  0  0  0  0  0  0  0  0  0  0
   49.9620   31.4470   40.1550 O   0  0  0  0  0  0  0  0  0  0  0  0
   49.4890   33.1900   41.2180 O   0  0  0  0  0  0  0  0  0  0  0  0
   48.8310   33.9500   42.1780 C   0  0  1  0  0  0  0  0  0  0  0  0
   49.7700   35.0940   42.5510 C   0  0  0  0  0  0  0  0  0  0  0  0
   49.3700   36.1590   41.5820 C   0  0  0  0  0  0  0  0  0  0  0  0
   48.5600   35.5410   40.6150 O   0  0  0  0  0  0  0  0  0  0  0  0
   47.7490   34.7400   41.4290 C   0  0  0  0  0  0  0  0  0  0  0  0
   45.2390   31.7078   36.8437 H   0  0  0  0  0  0  0  0  0  0  0  0
   46.1973   29.9216   38.4226 H   0  0  0  0  0  0  0  0  0  0  0  0
   45.9072   28.9941   41.7583 H   0  0  0  0  0  0  0  0  0  0  0  0
   45.2533   30.5531   42.4624 H   0  0  0  0  0  0  0  0  0  0  0  0
   44.9323   34.0921   39.2277 H   0  0  0  0  0  0  0  0  0  0  0  0
   40.5373   36.5551   37.9402 H   0  0  0  0  0  0  0  0  0  0  0  0
   42.6805   35.4173   37.2888 H   0  0  0  0  0  0  0  0  0  0  0  0
   40.6283   34.6320   41.7133 H   0  0  0  0  0  0  0  0  0  0  0  0
   47.5400   30.5858   43.6269 H   0  0  0  0  0  0  0  0  0  0  0  0
   48.4215   29.3969   42.6089 H   0  0  0  0  0  0  0  0  0  0  0  0
   48.9191   31.1229   42.6089 H   0  0  0  0  0  0  0  0  0  0  0  0
   48.4904   33.3129   43.0075 H   0  0  0  0  0  0  0  0  0  0  0  0
   49.6098   35.4191   43.5896 H   0  0  0  0  0  0  0  0  0  0  0  0
   50.8355   34.8260   42.4978 H   0  0  0  0  0  0  0  0  0  0  0  0
   48.8068   36.9499   42.0990 H   0  0  0  0  0  0  0  0  0  0  0  0
   50.2526   36.6252   41.1197 H   0  0  0  0  0  0  0  0  0  0  0  0
   47.1345   35.3427   42.1139 H   0  0  0  0  0  0  0  0  0  0  0  0
   47.0122   34.1253   40.8911 H   0  0  0  0  0  0  0  0  0  0  0  0
  1  9  1  0
  1 19  1  0
  2 20  1  0
  2  1  2  0
  3  2  1  0
  4  3  1  0
  5  4  2  0
  6 10  1  0
  6  4  1  0
  6  7  1  0
  7  3  1  0
  7  8  1  0
  8  9  1  0
 10 12  1  0
 11 10  2  0
 12 15  1  0
 13 18  2  0
 14 13  1  0
 14 15  2  0
 15 16  1  0
 16 17  2  0
 18 17  1  0
 20 22  1  0
 21 20  2  0
 23 22  1  0
 23 24  1  0
 25 24  1  0
 26 27  1  0
 26 25  1  0
 27 23  1  0
  6 28  1  6
  7 29  1  6
  9 30  1  0
  9 31  1  0
 12 32  1  0
 13 33  1  0
 14 34  1  0
 17 35  1  0
 19 36  1  0
 19 37  1  0
 19 38  1  0
 23 39  1  1
 24 40  1  0
 24 41  1  0
 25 42  1  0
 25 43  1  0
 27 44  1  0
 27 45  1  0
M  ISO  8  28  13  29  13  30  13  31  13  33  14  34  14  35  14  36   8
M  ISO  8  37   8  38   8  39  13  40  13  41  13  42  13  43  13  44  13
M  ISO  1  45  13
M  END
>  <minimizedAffinity>  (1) 
-4.62812614

>  <minimizedRMSD>  (1) 
4.80013657

$$$$
