
     RDKit          3D

 20 21  0  0  1  0  0  0  0  0999 V2000
   46.0800   35.3670   42.5040 C   0  0  0  0  0  0  0  0  0  0  0  0
   46.8250   34.2690   42.9990 C   0  0  0  0  0  0  0  0  0  0  0  0
   46.5280   33.7680   44.2660 C   0  0  0  0  0  0  0  0  0  0  0  0
   45.5130   34.3880   44.9650 N   0  0  0  0  0  0  0  0  0  0  0  0
   44.8280   35.4240   44.4710 C   0  0  0  0  0  0  0  0  0  0  0  0
   45.1120   35.9150   43.2370 N   0  0  0  0  0  0  0  0  0  0  0  0
   47.9210   33.6770   42.1730 C   0  0  1  0  0  0  0  0  0  0  0  0
   48.8780   34.5310   41.4810 C   0  0  2  0  0  0  0  0  0  0  0  0
   49.3330   33.7620   42.6830 C   0  0  0  0  0  0  0  0  0  0  0  0
   49.0350   36.0060   41.6580 C   0  0  0  0  0  0  0  0  0  0  0  0
   46.3026   35.7709   41.5054 H   0  0  0  0  0  0  0  0  0  0  0  0
   47.0791   32.9155   44.6897 H   0  0  0  0  0  0  0  0  0  0  0  0
   44.0271   35.8830   45.0692 H   0  0  0  0  0  0  0  0  0  0  0  0
   47.2496   32.8684   41.8484 H   0  0  0  0  0  0  0  0  0  0  0  0
   49.0696   34.6177   40.4013 H   0  0  0  0  0  0  0  0  0  0  0  0
   49.5522   34.2843   43.6259 H   0  0  0  0  0  0  0  0  0  0  0  0
   50.1371   33.0441   42.9022 H   0  0  0  0  0  0  0  0  0  0  0  0
   49.0605   36.2458   42.7312 H   0  0  0  0  0  0  0  0  0  0  0  0
   49.9731   36.3341   41.1866 H   0  0  0  0  0  0  0  0  0  0  0  0
   48.1869   36.5242   41.1866 H   0  0  0  0  0  0  0  0  0  0  0  0
  1  2  2  0
  1  6  1  0
  2  3  1  0
  3  4  2  0
  5  4  1  0
  6  5  2  0
  7  9  1  0
  7  2  1  0
  8 10  1  0
  8  7  1  0
  8  9  1  0
  1 11  1  0
  3 12  1  0
  5 13  1  0
  7 14  1  6
  8 15  1  6
  9 16  1  0
  9 17  1  0
 10 18  1  0
 10 19  1  0
 10 20  1  0
M  ISO  8  11  14  12  14  13  14  14  13  15  13  16  13  17  13  18   8
M  ISO  2  19   8  20   8
M  END
>  <minimizedAffinity>  (1) 
-3.77028656

>  <minimizedRMSD>  (1) 
0.930009425

$$$$
