
     RDKit          3D

 40 43  0  0  1  0  0  0  0  0999 V2000
   45.1840   33.7900   41.4340 C   0  0  1  0  0  0  0  0  0  0  0  0
   43.8980   33.3140   40.6360 C   0  0  0  0  0  0  0  0  0  0  0  0
   42.9250   32.7240   41.6190 C   0  0  0  0  0  0  0  0  0  0  0  0
   43.4110   31.4170   42.2030 C   0  0  0  0  0  0  0  0  0  0  0  0
   44.9200   31.4250   42.2290 C   0  0  0  0  0  0  0  0  0  0  0  0
   45.4500   32.8160   42.5110 C   0  0  2  0  0  0  0  0  0  0  0  0
   46.2650   33.8860   40.4020 C   0  0  0  0  0  0  0  0  0  0  0  0
   47.5010   34.4690   40.5250 C   0  0  0  0  0  0  0  0  0  0  0  0
   48.3270   34.3750   39.4000 C   0  0  0  0  0  0  0  0  0  0  0  0
   47.8860   33.7320   38.2730 N   0  0  0  0  0  0  0  0  0  0  0  0
   46.6640   33.1810   38.2210 C   0  0  0  0  0  0  0  0  0  0  0  0
   45.8620   33.2700   39.3060 N   0  0  0  0  0  0  0  0  0  0  0  0
   47.9580   35.2570   41.7130 C   0  0  0  0  0  0  0  0  0  0  0  0
   49.2010   34.7330   42.3500 C   0  0  0  0  0  0  0  0  0  0  0  0
   49.2440   36.0460   41.5930 C   0  0  0  0  0  0  0  0  0  0  0  0
   45.1110   33.2770   43.9040 C   0  0  0  0  0  0  0  0  0  0  0  0
   45.2860   34.6510   44.3470 C   0  0  0  0  0  0  0  0  0  0  0  0
   46.2810   33.6690   44.8390 C   0  0  0  0  0  0  0  0  0  0  0  0
   45.0846   34.7634   41.9367 H   0  0  0  0  0  0  0  0  0  0  0  0
   43.4372   34.1730   40.1263 H   0  0  0  0  0  0  0  0  0  0  0  0
   44.1761   32.5641   39.8809 H   0  0  0  0  0  0  0  0  0  0  0  0
   42.7732   33.4416   42.4387 H   0  0  0  0  0  0  0  0  0  0  0  0
   41.9879   32.5207   41.0799 H   0  0  0  0  0  0  0  0  0  0  0  0
   43.0245   31.3034   43.2266 H   0  0  0  0  0  0  0  0  0  0  0  0
   43.0530   30.5779   41.5884 H   0  0  0  0  0  0  0  0  0  0  0  0
   45.2700   30.7402   43.0155 H   0  0  0  0  0  0  0  0  0  0  0  0
   45.2895   31.1017   41.2447 H   0  0  0  0  0  0  0  0  0  0  0  0
   46.5477   32.7466   42.4975 H   0  0  0  0  0  0  0  0  0  0  0  0
   49.3334   34.8185   39.4200 H   0  0  0  0  0  0  0  0  0  0  0  0
   46.3205   32.6659   37.3118 H   0  0  0  0  0  0  0  0  0  0  0  0
   46.9418   35.5198   42.0419 H   0  0  0  0  0  0  0  0  0  0  0  0
   49.2960   34.7279   43.4459 H   0  0  0  0  0  0  0  0  0  0  0  0
   49.7611   33.7878   42.2955 H   0  0  0  0  0  0  0  0  0  0  0  0
   49.7651   36.1100   40.6264 H   0  0  0  0  0  0  0  0  0  0  0  0
   49.5569   37.0747   41.8253 H   0  0  0  0  0  0  0  0  0  0  0  0
   44.2563   32.5847   43.9167 H   0  0  0  0  0  0  0  0  0  0  0  0
   45.5969   35.4167   43.6210 H   0  0  0  0  0  0  0  0  0  0  0  0
   44.6252   35.3734   44.8485 H   0  0  0  0  0  0  0  0  0  0  0  0
   46.2806   33.3559   45.8935 H   0  0  0  0  0  0  0  0  0  0  0  0
   47.3767   33.5732   44.8216 H   0  0  0  0  0  0  0  0  0  0  0  0
  1  6  1  0
  2  1  1  0
  2  3  1  0
  3  4  1  0
  4  5  1  0
  5  6  1  0
  6 16  1  0
  7  8  1  0
  7  1  1  0
  8 13  1  0
  9  8  2  0
 10  9  1  0
 11 10  2  0
 11 12  1  0
 12  7  2  0
 13 14  1  0
 15 13  1  0
 15 14  1  0
 16 17  1  0
 16 18  1  0
 17 18  1  0
  1 19  1  1
  2 20  1  0
  2 21  1  0
  3 22  1  0
  3 23  1  0
  4 24  1  0
  4 25  1  0
  5 26  1  0
  5 27  1  0
  6 28  1  1
  9 29  1  0
 11 30  1  0
 13 31  1  0
 14 32  1  0
 14 33  1  0
 15 34  1  0
 15 35  1  0
 16 36  1  0
 17 37  1  0
 17 38  1  0
 18 39  1  0
 18 40  1  0
M  ISO  8  19  13  20  13  21  13  22  13  23  13  24  13  25  13  26  13
M  ISO  8  27  13  28  13  29  14  30  14  31  13  32  13  33  13  34  13
M  ISO  6  35  13  36  13  37  13  38  13  39  13  40  13
M  END
>  <minimizedAffinity>  (1) 
-4.60400105

>  <minimizedRMSD>  (1) 
4.05048752

$$$$
