
     RDKit          3D

 19 20  0  0  1  0  0  0  0  0999 V2000
   46.2610   34.3790   41.3420 C   0  0  1  0  0  0  0  0  0  0  0  0
   47.6300   34.7080   40.9490 C   0  0  2  0  0  0  0  0  0  0  0  0
   47.2850   33.2750   41.1940 C   0  0  0  0  0  0  0  0  0  0  0  0
   45.2130   35.9470   42.9580 C   0  0  0  0  0  0  0  0  0  0  0  0
   45.7410   34.6810   42.6970 C   0  0  0  0  0  0  0  0  0  0  0  0
   45.7600   33.7710   43.7520 C   0  0  0  0  0  0  0  0  0  0  0  0
   45.2640   34.1670   44.9760 N   0  0  0  0  0  0  0  0  0  0  0  0
   44.7700   35.3920   45.1770 C   0  0  0  0  0  0  0  0  0  0  0  0
   44.7370   36.3050   44.1620 N   0  0  0  0  0  0  0  0  0  0  0  0
   48.5310   35.2980   41.9700 C   0  0  0  0  0  0  0  0  0  0  0  0
   49.2160   36.2200   41.5990 O   0  0  0  0  0  0  0  0  0  0  0  0
   45.2751   34.6140   40.9145 H   0  0  0  0  0  0  0  0  0  0  0  0
   48.0466   35.2928   40.1157 H   0  0  0  0  0  0  0  0  0  0  0  0
   47.2214   32.5680   40.3537 H   0  0  0  0  0  0  0  0  0  0  0  0
   47.6733   32.4688   41.8338 H   0  0  0  0  0  0  0  0  0  0  0  0
   45.1856   36.6837   42.1416 H   0  0  0  0  0  0  0  0  0  0  0  0
   46.1626   32.7571   43.6112 H   0  0  0  0  0  0  0  0  0  0  0  0
   44.3860   35.6679   46.1702 H   0  0  0  0  0  0  0  0  0  0  0  0
   48.5721   34.9184   43.0016 H   0  0  0  0  0  0  0  0  0  0  0  0
  1  5  1  0
  2  3  1  0
  2  1  1  0
  2 10  1  0
  3  1  1  0
  4  9  2  0
  5  4  1  0
  5  6  2  0
  6  7  1  0
  7  8  2  0
  9  8  1  0
 11 10  2  0
  1 12  1  6
  2 13  1  6
  3 14  1  0
  3 15  1  0
  4 16  1  0
  6 17  1  0
  8 18  1  0
 10 19  1  0
M  ISO  8  12  13  13  13  14  13  15  13  16  14  17  14  18  14  19   6
M  END
>  <minimizedAffinity>  (1) 
-3.83765364

>  <minimizedRMSD>  (1) 
1.77045357

$$$$
