
     RDKit          3D

 45 48  0  0  1  0  0  0  0  0999 V2000
   45.2820   33.9230   41.4650 C   0  0  1  0  0  0  0  0  0  0  0  0
   43.9490   34.2910   40.6830 C   0  0  0  0  0  0  0  0  0  0  0  0
   42.7780   33.7920   41.4800 C   0  0  0  0  0  0  0  0  0  0  0  0
   42.6960   32.2810   41.5010 C   0  0  0  0  0  0  0  0  0  0  0  0
   44.0960   31.7180   41.3820 C   0  0  0  0  0  0  0  0  0  0  0  0
   45.0970   32.5950   42.0820 C   0  0  2  0  0  0  0  0  0  0  0  0
   46.3620   33.9870   40.4290 C   0  0  0  0  0  0  0  0  0  0  0  0
   47.6170   34.5270   40.5460 C   0  0  0  0  0  0  0  0  0  0  0  0
   48.4360   34.3980   39.4220 C   0  0  0  0  0  0  0  0  0  0  0  0
   47.9710   33.7640   38.2990 N   0  0  0  0  0  0  0  0  0  0  0  0
   46.7330   33.2550   38.2490 C   0  0  0  0  0  0  0  0  0  0  0  0
   45.9360   33.3790   39.3370 N   0  0  0  0  0  0  0  0  0  0  0  0
   48.1090   35.3030   41.7260 C   0  0  0  0  0  0  0  0  0  0  0  0
   49.4530   34.8860   42.2200 C   0  0  0  0  0  0  0  0  0  0  0  0
   49.2930   36.2220   41.5250 C   0  0  0  0  0  0  0  0  0  0  0  0
   44.9010   32.6780   43.5110 N   0  0  0  0  0  0  0  0  0  0  0  0
   45.6390   33.8750   43.9420 C   0  0  0  0  0  0  0  0  0  0  0  0
   46.9170   33.3380   44.6020 C   0  0  0  0  0  0  0  0  0  0  0  0
   46.3710   32.1260   45.3030 C   0  0  0  0  0  0  0  0  0  0  0  0
   45.4420   31.5690   44.2200 C   0  0  0  0  0  0  0  0  0  0  0  0
   45.5450   34.5986   42.2923 H   0  0  0  0  0  0  0  0  0  0  0  0
   43.8783   35.3821   40.5625 H   0  0  0  0  0  0  0  0  0  0  0  0
   43.9544   33.8243   39.6869 H   0  0  0  0  0  0  0  0  0  0  0  0
   42.8741   34.1549   42.5140 H   0  0  0  0  0  0  0  0  0  0  0  0
   41.8620   34.1709   41.0032 H   0  0  0  0  0  0  0  0  0  0  0  0
   42.2420   31.9479   42.4460 H   0  0  0  0  0  0  0  0  0  0  0  0
   42.0770   31.9273   40.6633 H   0  0  0  0  0  0  0  0  0  0  0  0
   44.1191   30.7156   41.8344 H   0  0  0  0  0  0  0  0  0  0  0  0
   44.3619   31.6690   40.3157 H   0  0  0  0  0  0  0  0  0  0  0  0
   46.0507   32.0674   41.9331 H   0  0  0  0  0  0  0  0  0  0  0  0
   49.4573   34.8064   39.4379 H   0  0  0  0  0  0  0  0  0  0  0  0
   46.3711   32.7468   37.3430 H   0  0  0  0  0  0  0  0  0  0  0  0
   47.1089   35.4438   42.1619 H   0  0  0  0  0  0  0  0  0  0  0  0
   49.6536   34.8502   43.3010 H   0  0  0  0  0  0  0  0  0  0  0  0
   50.0956   34.0059   42.0699 H   0  0  0  0  0  0  0  0  0  0  0  0
   49.7094   36.3747   40.5184 H   0  0  0  0  0  0  0  0  0  0  0  0
   49.5242   37.2679   41.7752 H   0  0  0  0  0  0  0  0  0  0  0  0
   45.8871   34.5083   43.0775 H   0  0  0  0  0  0  0  0  0  0  0  0
   45.0493   34.4983   44.6302 H   0  0  0  0  0  0  0  0  0  0  0  0
   47.6776   33.0674   43.8549 H   0  0  0  0  0  0  0  0  0  0  0  0
   47.4317   34.0554   45.2580 H   0  0  0  0  0  0  0  0  0  0  0  0
   47.1679   31.4127   45.5601 H   0  0  0  0  0  0  0  0  0  0  0  0
   45.8789   32.3363   46.2640 H   0  0  0  0  0  0  0  0  0  0  0  0
   44.6313   30.9872   44.6830 H   0  0  0  0  0  0  0  0  0  0  0  0
   45.9943   30.9049   43.5389 H   0  0  0  0  0  0  0  0  0  0  0  0
  1  6  1  0
  2  1  1  0
  2  3  1  0
  3  4  1  0
  5  4  1  0
  5  6  1  0
  6 16  1  0
  7  8  1  0
  7  1  1  0
  8 13  1  0
  9  8  2  0
 10  9  1  0
 11 10  2  0
 11 12  1  0
 12  7  2  0
 13 14  1  0
 15 13  1  0
 15 14  1  0
 16 17  1  0
 16 20  1  0
 17 18  1  0
 18 19  1  0
 20 19  1  0
  1 21  1  1
  2 22  1  0
  2 23  1  0
  3 24  1  0
  3 25  1  0
  4 26  1  0
  4 27  1  0
  5 28  1  0
  5 29  1  0
  6 30  1  1
  9 31  1  0
 11 32  1  0
 13 33  1  0
 14 34  1  0
 14 35  1  0
 15 36  1  0
 15 37  1  0
 17 38  1  0
 17 39  1  0
 18 40  1  0
 18 41  1  0
 19 42  1  0
 19 43  1  0
 20 44  1  0
 20 45  1  0
M  ISO  8  21  13  22  13  23  13  24  13  25  13  26  13  27  13  28  13
M  ISO  8  29  13  30  13  31  14  32  14  33  13  34  13  35  13  36  13
M  ISO  8  37  13  38  13  39  13  40  13  41  13  42  13  43  13  44  13
M  ISO  1  45  13
M  END
>  <minimizedAffinity>  (1) 
-4.91076899

>  <minimizedRMSD>  (1) 
4.59230471

$$$$
