
     RDKit          3D

 36 38  0  0  1  0  0  0  0  0999 V2000
   45.1600   34.4060   41.2410 C   0  0  1  0  0  0  0  0  0  0  0  0
   45.4950   33.2760   40.1740 C   0  0  0  0  0  0  0  0  0  0  0  0
   44.4320   33.2930   39.1130 C   0  0  0  0  0  0  0  0  0  0  0  0
   43.0720   32.8820   39.6170 C   0  0  0  0  0  0  0  0  0  0  0  0
   42.9760   33.1940   41.0910 C   0  0  0  0  0  0  0  0  0  0  0  0
   43.7010   34.4960   41.3930 C   0  0  2  0  0  0  0  0  0  0  0  0
   45.9190   34.0030   42.4650 C   0  0  0  0  0  0  0  0  0  0  0  0
   47.2700   34.0220   42.6770 C   0  0  0  0  0  0  0  0  0  0  0  0
   47.6870   33.6520   43.9580 C   0  0  0  0  0  0  0  0  0  0  0  0
   46.7700   33.3030   44.9100 N   0  0  0  0  0  0  0  0  0  0  0  0
   45.4520   33.3070   44.6390 C   0  0  0  0  0  0  0  0  0  0  0  0
   45.0470   33.6640   43.3980 N   0  0  0  0  0  0  0  0  0  0  0  0
   48.2960   34.3090   41.6240 C   0  0  0  0  0  0  0  0  0  0  0  0
   48.7480   35.7280   41.5820 C   0  0  0  0  0  0  0  0  0  0  0  0
   49.6950   34.6580   42.0800 C   0  0  0  0  0  0  0  0  0  0  0  0
   43.0640   35.6490   40.6730 C   0  0  0  0  0  0  0  0  0  0  0  0
   45.4646   35.4257   40.9628 H   0  0  0  0  0  0  0  0  0  0  0  0
   46.4767   33.4744   39.7191 H   0  0  0  0  0  0  0  0  0  0  0  0
   45.5234   32.2914   40.6637 H   0  0  0  0  0  0  0  0  0  0  0  0
   44.7296   32.6015   38.3110 H   0  0  0  0  0  0  0  0  0  0  0  0
   44.3454   34.3308   38.7586 H   0  0  0  0  0  0  0  0  0  0  0  0
   42.2941   33.4366   39.0717 H   0  0  0  0  0  0  0  0  0  0  0  0
   42.9279   31.8034   39.4565 H   0  0  0  0  0  0  0  0  0  0  0  0
   41.9178   33.2915   41.3749 H   0  0  0  0  0  0  0  0  0  0  0  0
   43.4415   32.3790   41.6646 H   0  0  0  0  0  0  0  0  0  0  0  0
   43.5752   34.7012   42.4663 H   0  0  0  0  0  0  0  0  0  0  0  0
   48.7595   33.6414   44.2021 H   0  0  0  0  0  0  0  0  0  0  0  0
   44.7193   33.0261   45.4098 H   0  0  0  0  0  0  0  0  0  0  0  0
   47.8958   33.5789   40.9052 H   0  0  0  0  0  0  0  0  0  0  0  0
   48.9325   36.2167   40.6139 H   0  0  0  0  0  0  0  0  0  0  0  0
   48.3658   36.6755   41.9896 H   0  0  0  0  0  0  0  0  0  0  0  0
   49.9579   34.6055   43.1468 H   0  0  0  0  0  0  0  0  0  0  0  0
   50.7104   34.3263   41.8175 H   0  0  0  0  0  0  0  0  0  0  0  0
   42.6679   36.3660   41.4072 H   0  0  0  0  0  0  0  0  0  0  0  0
   43.8148   36.1473   40.0421 H   0  0  0  0  0  0  0  0  0  0  0  0
   42.2425   35.2786   40.0421 H   0  0  0  0  0  0  0  0  0  0  0  0
  1  6  1  0
  1  7  1  0
  2  1  1  0
  3  4  1  0
  3  2  1  0
  4  5  1  0
  5  6  1  0
  7  8  1  0
  7 12  2  0
  8  9  2  0
  9 10  1  0
 11 10  2  0
 12 11  1  0
 13 15  1  0
 13  8  1  0
 14 13  1  0
 14 15  1  0
 16  6  1  0
  1 17  1  6
  2 18  1  0
  2 19  1  0
  3 20  1  0
  3 21  1  0
  4 22  1  0
  4 23  1  0
  5 24  1  0
  5 25  1  0
  6 26  1  1
  9 27  1  0
 11 28  1  0
 13 29  1  0
 14 30  1  0
 14 31  1  0
 15 32  1  0
 15 33  1  0
 16 34  1  0
 16 35  1  0
 16 36  1  0
M  ISO  8  17  13  18  13  19  13  20  13  21  13  22  13  23  13  24  13
M  ISO  8  25  13  26  13  27  14  28  14  29  13  30  13  31  13  32  13
M  ISO  4  33  13  34   8  35   8  36   8
M  END
>  <minimizedAffinity>  (1) 
-4.20835924

>  <minimizedRMSD>  (1) 
1.057163

$$$$
