
     RDKit          3D

 35 37  0  0  1  0  0  0  0  0999 V2000
   45.1460   34.5940   41.5890 C   0  0  1  0  0  0  0  0  0  0  0  0
   45.2170   33.6130   40.3390 C   0  0  0  0  0  0  0  0  0  0  0  0
   44.0550   33.9130   39.4330 C   0  0  0  0  0  0  0  0  0  0  0  0
   42.7410   33.4910   40.0430 C   0  0  0  0  0  0  0  0  0  0  0  0
   42.8280   33.6420   41.5490 C   0  0  0  0  0  0  0  0  0  0  0  0
   43.7270   34.7930   41.9290 C   0  0  2  0  0  0  0  0  0  0  0  0
   45.9750   33.9290   42.6420 C   0  0  0  0  0  0  0  0  0  0  0  0
   47.3430   33.8370   42.7170 C   0  0  0  0  0  0  0  0  0  0  0  0
   47.8470   33.1970   43.8520 C   0  0  0  0  0  0  0  0  0  0  0  0
   46.9900   32.7080   44.8060 N   0  0  0  0  0  0  0  0  0  0  0  0
   45.6610   32.8330   44.6730 C   0  0  0  0  0  0  0  0  0  0  0  0
   45.1750   33.4520   43.5750 N   0  0  0  0  0  0  0  0  0  0  0  0
   48.2840   34.2850   41.6400 C   0  0  0  0  0  0  0  0  0  0  0  0
   48.6820   35.7170   41.7310 C   0  0  0  0  0  0  0  0  0  0  0  0
   49.6990   34.6400   42.0430 C   0  0  0  0  0  0  0  0  0  0  0  0
   43.2260   36.0700   41.4560 N   0  0  0  0  0  0  0  0  0  0  0  0
   45.5447   35.6062   41.4263 H   0  0  0  0  0  0  0  0  0  0  0  0
   46.1610   33.7701   39.7967 H   0  0  0  0  0  0  0  0  0  0  0  0
   45.1725   32.5671   40.6767 H   0  0  0  0  0  0  0  0  0  0  0  0
   44.1957   33.3744   38.4843 H   0  0  0  0  0  0  0  0  0  0  0  0
   44.0215   35.0005   39.2710 H   0  0  0  0  0  0  0  0  0  0  0  0
   41.9322   34.1271   39.6542 H   0  0  0  0  0  0  0  0  0  0  0  0
   42.5298   32.4427   39.7850 H   0  0  0  0  0  0  0  0  0  0  0  0
   41.8204   33.8255   41.9504 H   0  0  0  0  0  0  0  0  0  0  0  0
   43.2491   32.7166   41.9690 H   0  0  0  0  0  0  0  0  0  0  0  0
   43.6963   34.8171   43.0283 H   0  0  0  0  0  0  0  0  0  0  0  0
   48.9336   33.0847   43.9814 H   0  0  0  0  0  0  0  0  0  0  0  0
   44.9806   32.4394   45.4425 H   0  0  0  0  0  0  0  0  0  0  0  0
   47.8609   33.6239   40.8694 H   0  0  0  0  0  0  0  0  0  0  0  0
   48.7826   36.3176   40.8150 H   0  0  0  0  0  0  0  0  0  0  0  0
   48.2952   36.5960   42.2674 H   0  0  0  0  0  0  0  0  0  0  0  0
   50.0357   34.4805   43.0780 H   0  0  0  0  0  0  0  0  0  0  0  0
   50.7053   34.3832   41.6805 H   0  0  0  0  0  0  0  0  0  0  0  0
   42.9918   36.6668   42.2621 H   0  0  0  0  0  0  0  0  0  0  0  0
   43.9482   36.5320   40.8851 H   0  0  0  0  0  0  0  0  0  0  0  0
  1  6  1  0
  1  7  1  0
  2  1  1  0
  3  4  1  0
  3  2  1  0
  4  5  1  0
  5  6  1  0
  7  8  1  0
  7 12  2  0
  8  9  2  0
  9 10  1  0
 11 10  2  0
 12 11  1  0
 13 14  1  0
 13 15  1  0
 13  8  1  0
 14 15  1  0
 16  6  1  0
  1 17  1  6
  2 18  1  0
  2 19  1  0
  3 20  1  0
  3 21  1  0
  4 22  1  0
  4 23  1  0
  5 24  1  0
  5 25  1  0
  6 26  1  1
  9 27  1  0
 11 28  1  0
 13 29  1  0
 14 30  1  0
 14 31  1  0
 15 32  1  0
 15 33  1  0
 16 34  1  0
 16 35  1  0
M  ISO  8  17  13  18  13  19  13  20  13  21  13  22  13  23  13  24  13
M  ISO  8  25  13  26  13  27  14  28  14  29  13  30  13  31  13  32  13
M  ISO  3  33  13  34   5  35   5
M  END
>  <minimizedAffinity>  (1) 
-4.16890478

>  <minimizedRMSD>  (1) 
0.83471632

$$$$
