
     RDKit          3D

 29 30  0  0  0  0  0  0  0  0999 V2000
   44.6990   35.3300   45.0710 C   0  0  0  0  0  0  0  0  0  0  0  0
   45.4040   35.2450   43.8650 C   0  0  0  0  0  0  0  0  0  0  0  0
   46.3490   34.2150   43.7190 C   0  0  0  0  0  0  0  0  0  0  0  0
   46.5220   33.3680   44.7520 N   0  0  0  0  0  0  0  0  0  0  0  0
   45.8220   33.4760   45.9130 C   0  0  0  0  0  0  0  0  0  0  0  0
   44.8950   34.4670   46.0840 N   0  0  0  0  0  0  0  0  0  0  0  0
   46.1110   32.4830   46.9570 C   0  0  0  0  0  0  0  0  0  0  0  0
   46.0010   31.0600   46.5410 C   0  0  0  0  0  0  0  0  0  0  0  0
   45.1520   30.2100   47.4520 C   0  0  0  0  0  0  0  0  0  0  0  0
   45.3710   30.4350   48.9090 C   0  0  0  0  0  0  0  0  0  0  0  0
   45.6600   31.8810   49.2550 C   0  0  0  0  0  0  0  0  0  0  0  0
   45.1180   32.6990   48.1010 C   0  0  0  0  0  0  0  0  0  0  0  0
   45.0670   36.2710   42.8570 C   0  0  0  0  0  0  0  0  0  0  0  0
   43.9569   36.1325   45.1951 H   0  0  0  0  0  0  0  0  0  0  0  0
   46.9288   34.1041   42.7908 H   0  0  0  0  0  0  0  0  0  0  0  0
   47.1632   32.6435   47.2346 H   0  0  0  0  0  0  0  0  0  0  0  0
   45.5618   31.0290   45.5329 H   0  0  0  0  0  0  0  0  0  0  0  0
   47.0178   30.6420   46.5780 H   0  0  0  0  0  0  0  0  0  0  0  0
   44.0957   30.4211   47.2292 H   0  0  0  0  0  0  0  0  0  0  0  0
   45.4400   29.1667   47.2555 H   0  0  0  0  0  0  0  0  0  0  0  0
   44.4668   30.1204   49.4507 H   0  0  0  0  0  0  0  0  0  0  0  0
   46.2541   29.8475   49.2003 H   0  0  0  0  0  0  0  0  0  0  0  0
   45.1548   32.1588   50.1918 H   0  0  0  0  0  0  0  0  0  0  0  0
   46.7362   32.0541   49.4030 H   0  0  0  0  0  0  0  0  0  0  0  0
   45.0677   33.7637   48.3726 H   0  0  0  0  0  0  0  0  0  0  0  0
   44.0979   32.3946   47.8238 H   0  0  0  0  0  0  0  0  0  0  0  0
   44.7625   37.1980   43.3650 H   0  0  0  0  0  0  0  0  0  0  0  0
   45.9471   36.4698   42.2277 H   0  0  0  0  0  0  0  0  0  0  0  0
   44.2405   35.9092   42.2277 H   0  0  0  0  0  0  0  0  0  0  0  0
  1  6  2  0
  2  1  1  0
  3  2  2  0
  3  4  1  0
  4  5  2  0
  5  6  1  0
  5  7  1  0
  7 12  1  0
  8  7  1  0
  8  9  1  0
  9 10  1  0
 10 11  1  0
 12 11  1  0
 13  2  1  0
  1 14  1  0
  3 15  1  0
  7 16  1  0
  8 17  1  0
  8 18  1  0
  9 19  1  0
  9 20  1  0
 10 21  1  0
 10 22  1  0
 11 23  1  0
 11 24  1  0
 12 25  1  0
 12 26  1  0
 13 27  1  0
 13 28  1  0
 13 29  1  0
M  ISO  8  14  14  15  14  16  13  17  13  18  13  19  13  20  13  21  13
M  ISO  8  22  13  23  13  24  13  25  13  26  13  27   8  28   8  29   8
M  END
>  <minimizedAffinity>  (1) 
-4.91304159

>  <minimizedRMSD>  (1) 
2.0240581

$$$$
