
     RDKit          3D

 17 17  0  0  0  0  0  0  0  0999 V2000
   44.3360   35.8010   44.4170 C   0  0  0  0  0  0  0  0  0  0  0  0
   44.6750   35.0900   43.2600 C   0  0  0  0  0  0  0  0  0  0  0  0
   45.3450   33.8840   43.4340 C   0  0  0  0  0  0  0  0  0  0  0  0
   45.6310   33.4590   44.6790 N   0  0  0  0  0  0  0  0  0  0  0  0
   45.2860   34.1780   45.7790 C   0  0  0  0  0  0  0  0  0  0  0  0
   44.6300   35.3640   45.6560 N   0  0  0  0  0  0  0  0  0  0  0  0
   46.6240   32.4470   47.1060 C   0  0  0  0  0  0  0  0  0  0  0  0
   47.1190   32.0600   45.9930 O   0  0  0  0  0  0  0  0  0  0  0  0
   45.6990   33.5190   46.9750 N   0  0  0  0  0  0  0  0  0  0  0  0
   44.2840   35.7010   41.9800 C   0  0  0  0  0  0  0  0  0  0  0  0
   43.8061   36.7589   44.3092 H   0  0  0  0  0  0  0  0  0  0  0  0
   45.6389   33.2821   42.5615 H   0  0  0  0  0  0  0  0  0  0  0  0
   46.8883   31.9940   48.0729 H   0  0  0  0  0  0  0  0  0  0  0  0
   45.2759   33.8612   47.8495 H   0  0  0  0  0  0  0  0  0  0  0  0
   43.7002   36.6133   42.1723 H   0  0  0  0  0  0  0  0  0  0  0  0
   45.1862   35.9574   41.4053 H   0  0  0  0  0  0  0  0  0  0  0  0
   43.6732   34.9892   41.4053 H   0  0  0  0  0  0  0  0  0  0  0  0
  1  6  2  0
  2  3  2  0
  2  1  1  0
  3  4  1  0
  4  5  2  0
  5  9  1  0
  6  5  1  0
  8  7  2  0
  9  7  1  0
 10  2  1  0
  1 11  1  0
  3 12  1  0
  7 13  1  0
  9 14  1  0
 10 15  1  0
 10 16  1  0
 10 17  1  0
M  ISO  6  11  14  12  14  13   6  15   8  16   8  17   8
M  END
>  <minimizedAffinity>  (1) 
-3.9135766

>  <minimizedRMSD>  (1) 
0.117150448

$$$$
