
     RDKit          3D

 16 16  0  0  0  0  0  0  0  0999 V2000
   44.4900   35.6390   44.5330 C   0  0  0  0  0  0  0  0  0  0  0  0
   44.6820   35.0530   43.2710 C   0  0  0  0  0  0  0  0  0  0  0  0
   45.2680   33.7960   43.2200 C   0  0  0  0  0  0  0  0  0  0  0  0
   45.6200   33.2080   44.3820 N   0  0  0  0  0  0  0  0  0  0  0  0
   45.4280   33.7860   45.5770 C   0  0  0  0  0  0  0  0  0  0  0  0
   44.8620   35.0050   45.6610 N   0  0  0  0  0  0  0  0  0  0  0  0
   44.2280   35.8600   42.1200 C   0  0  0  0  0  0  0  0  0  0  0  0
   45.8410   33.0760   46.7960 C   0  0  0  0  0  0  0  0  0  0  0  0
   44.0271   36.6345   44.6010 H   0  0  0  0  0  0  0  0  0  0  0  0
   45.4409   33.2924   42.2574 H   0  0  0  0  0  0  0  0  0  0  0  0
   43.7191   36.7646   42.4844 H   0  0  0  0  0  0  0  0  0  0  0  0
   45.0962   36.1485   41.5093 H   0  0  0  0  0  0  0  0  0  0  0  0
   43.5306   35.2678   41.5093 H   0  0  0  0  0  0  0  0  0  0  0  0
   45.5116   33.6423   47.6796 H   0  0  0  0  0  0  0  0  0  0  0  0
   45.3839   32.0756   46.8103 H   0  0  0  0  0  0  0  0  0  0  0  0
   46.9366   32.9788   46.8103 H   0  0  0  0  0  0  0  0  0  0  0  0
  1  6  2  0
  2  1  1  0
  3  2  2  0
  3  4  1  0
  4  5  2  0
  5  6  1  0
  5  8  1  0
  7  2  1  0
  1  9  1  0
  3 10  1  0
  7 11  1  0
  7 12  1  0
  7 13  1  0
  8 14  1  0
  8 15  1  0
  8 16  1  0
M  ISO  8   9  14  10  14  11   8  12   8  13   8  14   8  15   8  16   8
M  END
>  <minimizedAffinity>  (1) 
-2.95382428

>  <minimizedRMSD>  (1) 
0.308454275

$$$$
