
     RDKit          3D

 19 19  0  0  0  0  0  0  0  0999 V2000
   44.5770   35.3110   44.3470 C   0  0  0  0  0  0  0  0  0  0  0  0
   44.9530   35.0410   43.0410 C   0  0  0  0  0  0  0  0  0  0  0  0
   45.9470   34.0770   42.8430 C   0  0  0  0  0  0  0  0  0  0  0  0
   46.4640   33.4840   43.9360 N   0  0  0  0  0  0  0  0  0  0  0  0
   46.0740   33.7700   45.1910 C   0  0  0  0  0  0  0  0  0  0  0  0
   45.1060   34.7050   45.4320 N   0  0  0  0  0  0  0  0  0  0  0  0
   44.2520   35.8110   42.0020 C   0  0  0  0  0  0  0  0  0  0  0  0
   46.6960   33.0780   46.2220 O   0  0  0  0  0  0  0  0  0  0  0  0
   46.6030   32.1970   48.7090 O   0  0  0  0  0  0  0  0  0  0  0  0
   45.7310   32.4050   47.4660 P   0  0  0  0  0  0  0  0  0  0  0  0
   45.0780   30.9290   46.9650 O   0  0  0  0  0  0  0  0  0  0  0  0
   44.5120   33.4850   47.9120 O   0  0  0  0  0  0  0  0  0  0  0  0
   43.7965   36.0686   44.5109 H   0  0  0  0  0  0  0  0  0  0  0  0
   46.2933   33.8133   41.8328 H   0  0  0  0  0  0  0  0  0  0  0  0
   43.5841   36.5446   42.4772 H   0  0  0  0  0  0  0  0  0  0  0  0
   44.9880   36.3367   41.3759 H   0  0  0  0  0  0  0  0  0  0  0  0
   43.6597   35.1275   41.3759 H   0  0  0  0  0  0  0  0  0  0  0  0
   44.8385   30.3877   47.7586 H   0  0  0  0  0  0  0  0  0  0  0  0
   44.4583   33.5326   48.8994 H   0  0  0  0  0  0  0  0  0  0  0  0
  1  6  2  0
  2  1  1  0
  3  2  2  0
  3  4  1  0
  4  5  2  0
  5  6  1  0
  5  8  1  0
  7  2  1  0
  8 10  1  0
 10 12  1  0
 10  9  2  0
 11 10  1  0
  1 13  1  0
  3 14  1  0
  7 15  1  0
  7 16  1  0
  7 17  1  0
 11 18  1  0
 12 19  1  0
M  ISO  7  13  14  14  14  15   8  16   8  17   8  18   3  19   3
M  END
>  <minimizedAffinity>  (1) 
-4.26958227

>  <minimizedRMSD>  (1) 
1.41280365

$$$$
