
     RDKit          3D

 36 38  0  0  1  0  0  0  0  0999 V2000
   46.4730   33.9750   44.0900 C   0  0  0  0  0  0  0  0  0  0  0  0
   46.1370   33.2710   42.9270 C   0  0  0  0  0  0  0  0  0  0  0  0
   45.7930   31.9420   43.0850 C   0  0  0  0  0  0  0  0  0  0  0  0
   45.8000   31.4200   44.3140 N   0  0  0  0  0  0  0  0  0  0  0  0
   46.1210   32.1020   45.4110 C   0  0  0  0  0  0  0  0  0  0  0  0
   46.4660   33.4000   45.3210 N   0  0  0  0  0  0  0  0  0  0  0  0
   47.3930   31.4310   47.4630 C   0  0  2  0  0  0  0  0  0  0  0  0
   46.0590   31.4060   46.6910 C   0  0  1  0  0  0  0  0  0  0  0  0
   45.2140   31.9510   47.6170 O   0  0  0  0  0  0  0  0  0  0  0  0
   45.5000   31.3470   48.8110 C   0  0  0  0  0  0  0  0  0  0  0  0
   46.8920   30.7600   48.7420 C   0  0  2  0  0  0  0  0  0  0  0  0
   47.6660   32.7220   47.7820 O   0  0  0  0  0  0  0  0  0  0  0  0
   47.6900   31.0440   49.8330 O   0  0  0  0  0  0  0  0  0  0  0  0
   46.1820   34.0870   41.7030 C   0  0  0  0  0  0  0  0  0  0  0  0
   44.3870   36.3730   42.8240 Cl  0  0  0  0  0  0  0  0  0  0  0  0
   43.9740   35.3770   41.4610 C   0  0  0  0  0  0  0  0  0  0  0  0
   44.8950   34.4190   41.1050 C   0  0  0  0  0  0  0  0  0  0  0  0
   44.4930   33.6630   39.9940 C   0  0  0  0  0  0  0  0  0  0  0  0
   43.3130   33.8210   39.2980 C   0  0  0  0  0  0  0  0  0  0  0  0
   42.4510   34.8100   39.7320 C   0  0  0  0  0  0  0  0  0  0  0  0
   42.7750   35.5990   40.8200 C   0  0  0  0  0  0  0  0  0  0  0  0
   46.7536   35.0351   44.0035 H   0  0  0  0  0  0  0  0  0  0  0  0
   45.5189   31.3263   42.2156 H   0  0  0  0  0  0  0  0  0  0  0  0
   48.2679   30.9937   46.9596 H   0  0  0  0  0  0  0  0  0  0  0  0
   45.7354   30.4097   46.3554 H   0  0  0  0  0  0  0  0  0  0  0  0
   45.4521   32.0895   49.6212 H   0  0  0  0  0  0  0  0  0  0  0  0
   44.7687   30.5497   49.0099 H   0  0  0  0  0  0  0  0  0  0  0  0
   46.9080   29.6601   48.7432 H   0  0  0  0  0  0  0  0  0  0  0  0
   47.6870   32.8212   48.7668 H   0  0  0  0  0  0  0  0  0  0  0  0
   47.1861   30.8647   50.6661 H   0  0  0  0  0  0  0  0  0  0  0  0
   46.6925   35.0304   41.9468 H   0  0  0  0  0  0  0  0  0  0  0  0
   46.7040   33.4705   40.9564 H   0  0  0  0  0  0  0  0  0  0  0  0
   45.1786   32.8756   39.6478 H   0  0  0  0  0  0  0  0  0  0  0  0
   43.0682   33.1863   38.4336 H   0  0  0  0  0  0  0  0  0  0  0  0
   41.4980   34.9710   39.2068 H   0  0  0  0  0  0  0  0  0  0  0  0
   42.0902   36.3871   41.1664 H   0  0  0  0  0  0  0  0  0  0  0  0
  1  6  2  0
  2  3  2  0
  2  1  1  0
  3  4  1  0
  4  5  2  0
  5  8  1  0
  6  5  1  0
  7 12  1  0
  7 11  1  0
  8  7  1  0
  8  9  1  0
  9 10  1  0
 11 10  1  0
 11 13  1  0
 14  2  1  0
 16 15  1  0
 17 16  2  0
 17 14  1  0
 18 17  1  0
 19 20  1  0
 19 18  2  0
 20 21  2  0
 21 16  1  0
  1 22  1  0
  3 23  1  0
  7 24  1  6
  8 25  1  6
 10 26  1  0
 10 27  1  0
 11 28  1  6
 12 29  1  0
 13 30  1  0
 14 31  1  0
 14 32  1  0
 18 33  1  0
 19 34  1  0
 20 35  1  0
 21 36  1  0
M  ISO  8  22  14  23  14  24  13  25  13  26  13  27  13  28  13  29   3
M  ISO  7  30   3  31   8  32   8  33  14  34  14  35  14  36  14
M  END
>  <minimizedAffinity>  (1) 
-5.42983341

>  <minimizedRMSD>  (1) 
3.76764679

$$$$
