
     RDKit          3D

 50 53  0  0  1  0  0  0  0  0999 V2000
   45.1310   34.8290   44.8080 C   0  0  0  0  0  0  0  0  0  0  0  0
   46.0720   34.5840   43.8100 C   0  0  0  0  0  0  0  0  0  0  0  0
   46.9230   33.4980   44.0070 C   0  0  0  0  0  0  0  0  0  0  0  0
   46.8400   32.7240   45.1060 N   0  0  0  0  0  0  0  0  0  0  0  0
   45.9100   32.9940   46.0580 C   0  0  0  0  0  0  0  0  0  0  0  0
   45.0590   34.0400   45.9140 N   0  0  0  0  0  0  0  0  0  0  0  0
   47.2840   31.7410   47.7090 C   0  0  2  0  0  0  0  0  0  0  0  0
   45.8530   32.1220   47.2240 C   0  0  1  0  0  0  0  0  0  0  0  0
   45.3850   32.6820   48.3640 O   0  0  0  0  0  0  0  0  0  0  0  0
   45.7070   31.8620   49.4030 C   0  0  0  0  0  0  0  0  0  0  0  0
   46.8590   30.9730   48.9660 C   0  0  2  0  0  0  0  0  0  0  0  0
   47.9490   32.8400   48.1070 O   0  0  0  0  0  0  0  0  0  0  0  0
   47.8670   30.8650   49.8910 O   0  0  0  0  0  0  0  0  0  0  0  0
   46.1470   35.4170   42.6280 C   0  0  0  0  0  0  0  0  0  0  0  0
   45.6980   34.6750   41.4430 C   0  0  0  0  0  0  0  0  0  0  0  0
   44.3760   34.4950   41.0760 C   0  0  0  0  0  0  0  0  0  0  0  0
   44.0170   33.7810   39.9560 C   0  0  0  0  0  0  0  0  0  0  0  0
   45.0130   33.2200   39.1680 C   0  0  0  0  0  0  0  0  0  0  0  0
   46.3500   33.3980   39.5330 C   0  0  0  0  0  0  0  0  0  0  0  0
   46.7050   34.1330   40.6820 C   0  0  0  0  0  0  0  0  0  0  0  0
   48.0980   34.1620   40.7570 N   0  0  0  0  0  0  0  0  0  0  0  0
   48.7380   35.4850   40.8670 C   0  0  0  0  0  0  0  0  0  0  0  0
   49.5650   35.5800   42.1200 C   0  0  0  0  0  0  0  0  0  0  0  0
   50.3720   34.4320   42.3660 N   0  0  0  0  0  0  0  0  0  0  0  0
   49.7250   33.1770   42.1710 C   0  0  0  0  0  0  0  0  0  0  0  0
   49.1190   33.1020   40.7690 C   0  0  0  0  0  0  0  0  0  0  0  0
   44.4351   35.6740   44.6999 H   0  0  0  0  0  0  0  0  0  0  0  0
   47.6821   33.2671   43.2451 H   0  0  0  0  0  0  0  0  0  0  0  0
   47.9237   31.2293   46.9748 H   0  0  0  0  0  0  0  0  0  0  0  0
   45.2080   31.3125   46.8515 H   0  0  0  0  0  0  0  0  0  0  0  0
   46.0100   32.4639   50.2724 H   0  0  0  0  0  0  0  0  0  0  0  0
   44.8392   31.2481   49.6859 H   0  0  0  0  0  0  0  0  0  0  0  0
   46.5930   29.9161   48.8173 H   0  0  0  0  0  0  0  0  0  0  0  0
   47.9692   32.8733   49.0962 H   0  0  0  0  0  0  0  0  0  0  0  0
   47.4838   30.9061   50.8029 H   0  0  0  0  0  0  0  0  0  0  0  0
   45.5052   36.2995   42.7665 H   0  0  0  0  0  0  0  0  0  0  0  0
   47.1920   35.7260   42.4778 H   0  0  0  0  0  0  0  0  0  0  0  0
   43.5858   34.9374   41.7004 H   0  0  0  0  0  0  0  0  0  0  0  0
   42.9572   33.6565   39.6890 H   0  0  0  0  0  0  0  0  0  0  0  0
   44.7530   32.6430   38.2683 H   0  0  0  0  0  0  0  0  0  0  0  0
   47.1418   32.9554   38.9108 H   0  0  0  0  0  0  0  0  0  0  0  0
   49.3879   35.6442   39.9939 H   0  0  0  0  0  0  0  0  0  0  0  0
   47.9516   36.2531   40.9065 H   0  0  0  0  0  0  0  0  0  0  0  0
   50.2251   36.4557   42.0340 H   0  0  0  0  0  0  0  0  0  0  0  0
   48.8618   35.6630   42.9618 H   0  0  0  0  0  0  0  0  0  0  0  0
   51.1838   34.4727   41.7334 H   0  0  0  0  0  0  0  0  0  0  0  0
   50.4600   32.3676   42.2920 H   0  0  0  0  0  0  0  0  0  0  0  0
   48.9205   33.0710   42.9137 H   0  0  0  0  0  0  0  0  0  0  0  0
   48.6605   32.1174   40.5948 H   0  0  0  0  0  0  0  0  0  0  0  0
   49.8719   33.2347   39.9781 H   0  0  0  0  0  0  0  0  0  0  0  0
  1  6  2  0
  2  3  2  0
  2  1  1  0
  3  4  1  0
  4  5  2  0
  5  8  1  0
  6  5  1  0
  7 12  1  0
  7 11  1  0
  8  7  1  0
  8  9  1  0
  9 10  1  0
 11 10  1  0
 11 13  1  0
 14  2  1  0
 15 14  1  0
 16 15  2  0
 17 16  1  0
 18 19  1  0
 18 17  2  0
 19 20  2  0
 20 21  1  0
 20 15  1  0
 21 26  1  0
 21 22  1  0
 22 23  1  0
 23 24  1  0
 25 24  1  0
 26 25  1  0
  1 27  1  0
  3 28  1  0
  7 29  1  6
  8 30  1  6
 10 31  1  0
 10 32  1  0
 11 33  1  6
 12 34  1  0
 13 35  1  0
 14 36  1  0
 14 37  1  0
 16 38  1  0
 17 39  1  0
 18 40  1  0
 19 41  1  0
 22 42  1  0
 22 43  1  0
 23 44  1  0
 23 45  1  0
 24 46  1  0
 25 47  1  0
 25 48  1  0
 26 49  1  0
 26 50  1  0
M  ISO  8  27  14  28  14  29  13  30  13  31  13  32  13  33  13  34   3
M  ISO  8  35   3  36   8  37   8  38  14  39  14  40  14  41  14  42  13
M  ISO  8  43  13  44  13  45  13  46   5  47  13  48  13  49  13  50  13
M  END
>  <minimizedAffinity>  (1) 
-7.40312958

>  <minimizedRMSD>  (1) 
1.24416256

$$$$
