
     RDKit          3D

 46 49  0  0  1  0  0  0  0  0999 V2000
   44.9250   34.9760   45.1030 C   0  0  0  0  0  0  0  0  0  0  0  0
   45.6980   34.7250   43.9740 C   0  0  0  0  0  0  0  0  0  0  0  0
   46.5000   33.5840   43.9970 C   0  0  0  0  0  0  0  0  0  0  0  0
   46.5240   32.7600   45.0660 N   0  0  0  0  0  0  0  0  0  0  0  0
   45.7550   33.0400   46.1490 C   0  0  0  0  0  0  0  0  0  0  0  0
   44.9590   34.1410   46.1700 N   0  0  0  0  0  0  0  0  0  0  0  0
   47.2760   31.8120   47.6850 C   0  0  2  0  0  0  0  0  0  0  0  0
   45.8020   32.1170   47.2810 C   0  0  1  0  0  0  0  0  0  0  0  0
   45.3580   32.6050   48.4610 O   0  0  0  0  0  0  0  0  0  0  0  0
   45.7830   31.7720   49.4510 C   0  0  0  0  0  0  0  0  0  0  0  0
   46.9590   30.9690   48.9280 C   0  0  2  0  0  0  0  0  0  0  0  0
   47.8890   32.9320   48.1000 O   0  0  0  0  0  0  0  0  0  0  0  0
   48.0080   30.8690   49.7900 O   0  0  0  0  0  0  0  0  0  0  0  0
   45.6670   35.6150   42.8250 C   0  0  0  0  0  0  0  0  0  0  0  0
   44.5800   35.2430   41.9120 C   0  0  0  0  0  0  0  0  0  0  0  0
   43.2680   35.6630   42.0340 C   0  0  0  0  0  0  0  0  0  0  0  0
   42.2770   35.2730   41.1670 C   0  0  0  0  0  0  0  0  0  0  0  0
   42.5990   34.4270   40.1280 C   0  0  0  0  0  0  0  0  0  0  0  0
   43.9180   33.9950   39.9900 C   0  0  0  0  0  0  0  0  0  0  0  0
   44.9290   34.4010   40.8840 C   0  0  0  0  0  0  0  0  0  0  0  0
   46.1640   33.8220   40.4280 C   0  0  0  0  0  0  0  0  0  0  0  0
   47.4100   34.4050   40.3510 C   0  0  0  0  0  0  0  0  0  0  0  0
   48.5590   33.7790   39.9190 C   0  0  0  0  0  0  0  0  0  0  0  0
   48.4530   32.4590   39.5310 C   0  0  0  0  0  0  0  0  0  0  0  0
   47.2630   31.7650   39.5610 C   0  0  0  0  0  0  0  0  0  0  0  0
   46.1750   32.4840   40.0090 C   0  0  0  0  0  0  0  0  0  0  0  0
   44.2771   35.8646   45.1301 H   0  0  0  0  0  0  0  0  0  0  0  0
   47.1272   33.3503   43.1241 H   0  0  0  0  0  0  0  0  0  0  0  0
   47.9106   31.3735   46.9008 H   0  0  0  0  0  0  0  0  0  0  0  0
   45.1897   31.2832   46.9070 H   0  0  0  0  0  0  0  0  0  0  0  0
   46.0954   32.3624   50.3249 H   0  0  0  0  0  0  0  0  0  0  0  0
   44.9686   31.0972   49.7532 H   0  0  0  0  0  0  0  0  0  0  0  0
   46.7453   29.9048   48.7500 H   0  0  0  0  0  0  0  0  0  0  0  0
   47.9012   32.9542   49.0897 H   0  0  0  0  0  0  0  0  0  0  0  0
   47.6740   30.9008   50.7214 H   0  0  0  0  0  0  0  0  0  0  0  0
   45.5106   36.6472   43.1715 H   0  0  0  0  0  0  0  0  0  0  0  0
   46.6238   35.5343   42.2883 H   0  0  0  0  0  0  0  0  0  0  0  0
   43.0069   36.3389   42.8616 H   0  0  0  0  0  0  0  0  0  0  0  0
   41.2448   35.6295   41.2995 H   0  0  0  0  0  0  0  0  0  0  0  0
   41.8268   34.0971   39.4175 H   0  0  0  0  0  0  0  0  0  0  0  0
   44.1760   33.3193   39.1612 H   0  0  0  0  0  0  0  0  0  0  0  0
   47.4945   35.4573   40.6600 H   0  0  0  0  0  0  0  0  0  0  0  0
   49.5217   34.3100   39.8848 H   0  0  0  0  0  0  0  0  0  0  0  0
   49.3573   31.9384   39.1828 H   0  0  0  0  0  0  0  0  0  0  0  0
   47.1864   30.7127   39.2498 H   0  0  0  0  0  0  0  0  0  0  0  0
   45.2132   31.9511   40.0411 H   0  0  0  0  0  0  0  0  0  0  0  0
  1  6  2  0
  2  3  2  0
  2  1  1  0
  3  4  1  0
  4  5  2  0
  5  6  1  0
  5  8  1  0
  7 12  1  0
  7 11  1  0
  8  7  1  0
  8  9  1  0
  9 10  1  0
 11 10  1  0
 11 13  1  0
 14  2  1  0
 15 16  2  0
 15 14  1  0
 17 16  1  0
 18 17  2  0
 19 18  1  0
 19 20  2  0
 20 15  1  0
 21 20  1  0
 22 21  2  0
 23 22  1  0
 24 25  1  0
 24 23  2  0
 25 26  2  0
 26 21  1  0
  1 27  1  0
  3 28  1  0
  7 29  1  6
  8 30  1  6
 10 31  1  0
 10 32  1  0
 11 33  1  6
 12 34  1  0
 13 35  1  0
 14 36  1  0
 14 37  1  0
 16 38  1  0
 17 39  1  0
 18 40  1  0
 19 41  1  0
 22 42  1  0
 23 43  1  0
 24 44  1  0
 25 45  1  0
 26 46  1  0
M  ISO  8  27  14  28  14  29  13  30  13  31  13  32  13  33  13  34   3
M  ISO  8  35   3  36   8  37   8  38  14  39  14  40  14  41  14  42  14
M  ISO  4  43  14  44  14  45  14  46  14
M  END
>  <minimizedAffinity>  (1) 
-7.07124662

>  <minimizedRMSD>  (1) 
0.528401673

$$$$
