
     RDKit          3D

 39 41  0  0  1  0  0  0  0  0999 V2000
   45.0300   34.9030   44.9480 C   0  0  0  0  0  0  0  0  0  0  0  0
   45.8450   34.6380   43.8520 C   0  0  0  0  0  0  0  0  0  0  0  0
   46.6480   33.5020   43.9260 C   0  0  0  0  0  0  0  0  0  0  0  0
   46.6330   32.6960   45.0100 N   0  0  0  0  0  0  0  0  0  0  0  0
   45.8240   32.9900   46.0570 C   0  0  0  0  0  0  0  0  0  0  0  0
   45.0250   34.0850   46.0320 N   0  0  0  0  0  0  0  0  0  0  0  0
   47.2870   31.7830   47.6640 C   0  0  2  0  0  0  0  0  0  0  0  0
   45.8290   32.0930   47.2130 C   0  0  1  0  0  0  0  0  0  0  0  0
   45.3680   32.6180   48.3730 O   0  0  0  0  0  0  0  0  0  0  0  0
   45.7480   31.7820   49.3850 C   0  0  0  0  0  0  0  0  0  0  0  0
   46.9390   30.9740   48.9130 C   0  0  2  0  0  0  0  0  0  0  0  0
   47.8980   32.9070   48.0750 O   0  0  0  0  0  0  0  0  0  0  0  0
   47.9530   30.8980   49.8220 O   0  0  0  0  0  0  0  0  0  0  0  0
   45.8550   35.5030   42.6870 C   0  0  0  0  0  0  0  0  0  0  0  0
   44.7730   35.1360   41.7620 C   0  0  0  0  0  0  0  0  0  0  0  0
   43.4560   35.5340   41.8760 C   0  0  0  0  0  0  0  0  0  0  0  0
   42.4760   35.1450   40.9900 C   0  0  0  0  0  0  0  0  0  0  0  0
   42.8340   34.3230   39.9540 C   0  0  0  0  0  0  0  0  0  0  0  0
   44.1460   33.9160   39.8240 C   0  0  0  0  0  0  0  0  0  0  0  0
   45.1320   34.3140   40.7200 C   0  0  0  0  0  0  0  0  0  0  0  0
   46.4430   33.7540   40.3020 C   0  0  0  0  0  0  0  0  0  0  0  0
   44.3790   35.7896   44.9363 H   0  0  0  0  0  0  0  0  0  0  0  0
   47.3095   33.2557   43.0823 H   0  0  0  0  0  0  0  0  0  0  0  0
   47.9340   31.3212   46.9036 H   0  0  0  0  0  0  0  0  0  0  0  0
   45.2134   31.2599   46.8429 H   0  0  0  0  0  0  0  0  0  0  0  0
   46.0265   32.3724   50.2703 H   0  0  0  0  0  0  0  0  0  0  0  0
   44.9184   31.1119   49.6545 H   0  0  0  0  0  0  0  0  0  0  0  0
   46.7428   29.9052   48.7423 H   0  0  0  0  0  0  0  0  0  0  0  0
   47.9117   32.9322   49.0646 H   0  0  0  0  0  0  0  0  0  0  0  0
   47.5780   30.9261   50.7378 H   0  0  0  0  0  0  0  0  0  0  0  0
   45.7171   36.5456   43.0094 H   0  0  0  0  0  0  0  0  0  0  0  0
   46.8187   35.3897   42.1689 H   0  0  0  0  0  0  0  0  0  0  0  0
   43.1767   36.1916   42.7124 H   0  0  0  0  0  0  0  0  0  0  0  0
   41.4366   35.4842   41.1105 H   0  0  0  0  0  0  0  0  0  0  0  0
   42.0780   33.9886   39.2283 H   0  0  0  0  0  0  0  0  0  0  0  0
   44.4200   33.2572   38.9868 H   0  0  0  0  0  0  0  0  0  0  0  0
   47.0349   33.5012   41.1940 H   0  0  0  0  0  0  0  0  0  0  0  0
   46.2796   32.8471   39.7012 H   0  0  0  0  0  0  0  0  0  0  0  0
   46.9852   34.4990   39.7012 H   0  0  0  0  0  0  0  0  0  0  0  0
  1  6  2  0
  2  3  2  0
  2  1  1  0
  3  4  1  0
  4  5  2  0
  5  8  1  0
  6  5  1  0
  7 12  1  0
  7 11  1  0
  8  7  1  0
  8  9  1  0
  9 10  1  0
 11 10  1  0
 11 13  1  0
 14  2  1  0
 15 16  2  0
 15 14  1  0
 17 16  1  0
 18 17  2  0
 19 18  1  0
 19 20  2  0
 20 15  1  0
 21 20  1  0
  1 22  1  0
  3 23  1  0
  7 24  1  6
  8 25  1  6
 10 26  1  0
 10 27  1  0
 11 28  1  6
 12 29  1  0
 13 30  1  0
 14 31  1  0
 14 32  1  0
 16 33  1  0
 17 34  1  0
 18 35  1  0
 19 36  1  0
 21 37  1  0
 21 38  1  0
 21 39  1  0
M  ISO  8  22  14  23  14  24  13  25  13  26  13  27  13  28  13  29   3
M  ISO  8  30   3  31   8  32   8  33  14  34  14  35  14  36  14  37   8
M  ISO  2  38   8  39   8
M  END
>  <minimizedAffinity>  (1) 
-6.4990921

>  <minimizedRMSD>  (1) 
0.244002879

$$$$
