
     RDKit          3D

 29 30  0  0  0  0  0  0  0  0999 V2000
   47.5340   34.9610   42.3190 C   0  0  0  0  0  0  0  0  0  0  0  0
   47.7470   34.0100   43.3370 C   0  0  0  0  0  0  0  0  0  0  0  0
   46.6950   33.7210   44.2090 C   0  0  0  0  0  0  0  0  0  0  0  0
   45.5220   34.3800   44.0210 N   0  0  0  0  0  0  0  0  0  0  0  0
   45.3440   35.2850   43.0410 C   0  0  0  0  0  0  0  0  0  0  0  0
   46.3350   35.5790   42.1930 N   0  0  0  0  0  0  0  0  0  0  0  0
   46.9060   32.7310   45.2750 C   0  0  0  0  0  0  0  0  0  0  0  0
   46.6240   31.3120   44.8250 C   0  0  0  0  0  0  0  0  0  0  0  0
   47.2750   30.4420   45.8740 C   0  0  0  0  0  0  0  0  0  0  0  0
   46.5820   30.6340   47.1710 C   0  0  0  0  0  0  0  0  0  0  0  0
   45.7880   31.8690   47.3540 C   0  0  0  0  0  0  0  0  0  0  0  0
   46.1460   33.0560   46.5300 C   0  0  0  0  0  0  0  0  0  0  0  0
   48.6880   35.2360   41.4130 C   0  0  0  0  0  0  0  0  0  0  0  0
   48.3430   35.1630   40.0970 F   0  0  0  0  0  0  0  0  0  0  0  0
   49.1740   36.5060   41.7400 F   0  0  0  0  0  0  0  0  0  0  0  0
   49.7320   34.3530   41.7110 F   0  0  0  0  0  0  0  0  0  0  0  0
   48.7195   33.5069   43.4424 H   0  0  0  0  0  0  0  0  0  0  0  0
   44.3717   35.7888   42.9364 H   0  0  0  0  0  0  0  0  0  0  0  0
   47.9778   32.7911   45.5150 H   0  0  0  0  0  0  0  0  0  0  0  0
   45.5406   31.1258   44.7841 H   0  0  0  0  0  0  0  0  0  0  0  0
   47.0127   31.1098   43.8161 H   0  0  0  0  0  0  0  0  0  0  0  0
   47.2032   29.3867   45.5720 H   0  0  0  0  0  0  0  0  0  0  0  0
   48.3340   30.7210   45.9779 H   0  0  0  0  0  0  0  0  0  0  0  0
   45.8995   29.7822   47.3073 H   0  0  0  0  0  0  0  0  0  0  0  0
   47.3938   30.7153   47.9088 H   0  0  0  0  0  0  0  0  0  0  0  0
   44.7397   31.6203   47.1321 H   0  0  0  0  0  0  0  0  0  0  0  0
   45.9951   32.1791   48.3889 H   0  0  0  0  0  0  0  0  0  0  0  0
   46.7649   33.7273   47.1435 H   0  0  0  0  0  0  0  0  0  0  0  0
   45.1988   33.5175   46.2141 H   0  0  0  0  0  0  0  0  0  0  0  0
  1  2  2  0
  2  3  1  0
  3  7  1  0
  4  3  2  0
  5  4  1  0
  6  1  1  0
  6  5  2  0
  7 12  1  0
  8  7  1  0
  8  9  1  0
  9 10  1  0
 10 11  1  0
 12 11  1  0
 13 16  1  0
 13 15  1  0
 13  1  1  0
 14 13  1  0
  2 17  1  0
  5 18  1  0
  7 19  1  0
  8 20  1  0
  8 21  1  0
  9 22  1  0
  9 23  1  0
 10 24  1  0
 10 25  1  0
 11 26  1  0
 11 27  1  0
 12 28  1  0
 12 29  1  0
M  ISO  8  17  14  18  14  19  13  20  13  21  13  22  13  23  13  24  13
M  ISO  5  25  13  26  13  27  13  28  13  29  13
M  END
>  <minimizedAffinity>  (1) 
-5.08459425

>  <minimizedRMSD>  (1) 
0.958432972

$$$$
