
     RDKit          3D

 20 21  0  0  0  0  0  0  0  0999 V2000
   47.5080   34.9550   42.3350 C   0  0  0  0  0  0  0  0  0  0  0  0
   47.7390   34.0030   43.3450 C   0  0  0  0  0  0  0  0  0  0  0  0
   46.6690   33.7220   44.2110 C   0  0  0  0  0  0  0  0  0  0  0  0
   45.4980   34.3660   44.0320 N   0  0  0  0  0  0  0  0  0  0  0  0
   45.3140   35.2760   43.0470 C   0  0  0  0  0  0  0  0  0  0  0  0
   46.3170   35.5650   42.2070 N   0  0  0  0  0  0  0  0  0  0  0  0
   46.8480   32.7620   45.2570 C   0  0  0  0  0  0  0  0  0  0  0  0
   46.7440   32.8250   46.5950 C   0  0  0  0  0  0  0  0  0  0  0  0
   46.9920   31.6830   47.3200 C   0  0  0  0  0  0  0  0  0  0  0  0
   47.3270   30.5480   46.6790 C   0  0  0  0  0  0  0  0  0  0  0  0
   47.3090   31.0590   44.9390 S   0  0  0  0  0  0  0  0  0  0  0  0
   48.6800   35.2270   41.4300 C   0  0  0  0  0  0  0  0  0  0  0  0
   48.3090   35.1720   40.1030 F   0  0  0  0  0  0  0  0  0  0  0  0
   49.1640   36.4970   41.7400 F   0  0  0  0  0  0  0  0  0  0  0  0
   49.7040   34.3320   41.7040 F   0  0  0  0  0  0  0  0  0  0  0  0
   48.7124   33.5019   43.4516 H   0  0  0  0  0  0  0  0  0  0  0  0
   44.3415   35.7780   42.9362 H   0  0  0  0  0  0  0  0  0  0  0  0
   46.4681   33.7642   47.0968 H   0  0  0  0  0  0  0  0  0  0  0  0
   46.9170   31.6971   48.4173 H   0  0  0  0  0  0  0  0  0  0  0  0
   47.5545   29.5591   47.1037 H   0  0  0  0  0  0  0  0  0  0  0  0
  1  2  2  0
  2  3  1  0
  3  7  1  0
  4  3  2  0
  5  4  1  0
  6  1  1  0
  6  5  2  0
  7  8  2  0
  8  9  1  0
 10  9  2  0
 11  7  1  0
 11 10  1  0
 12 15  1  0
 12 14  1  0
 12  1  1  0
 13 12  1  0
  2 16  1  0
  5 17  1  0
  8 18  1  0
  9 19  1  0
 10 20  1  0
M  ISO  5  16  14  17  14  18  14  19  14  20  14
M  END
>  <minimizedAffinity>  (1) 
-4.80029583

>  <minimizedRMSD>  (1) 
0.724589229

$$$$
