
     RDKit          3D

 16 16  0  0  0  0  0  0  0  0999 V2000
   46.2870   34.8710   43.1520 C   0  0  0  0  0  0  0  0  0  0  0  0
   46.4840   33.9210   44.1660 C   0  0  0  0  0  0  0  0  0  0  0  0
   45.6870   34.0210   45.3190 C   0  0  0  0  0  0  0  0  0  0  0  0
   44.7820   35.0200   45.3830 N   0  0  0  0  0  0  0  0  0  0  0  0
   44.6120   35.9240   44.3920 C   0  0  0  0  0  0  0  0  0  0  0  0
   45.3610   35.8480   43.2820 N   0  0  0  0  0  0  0  0  0  0  0  0
   47.1520   34.7400   41.9310 C   0  0  0  0  0  0  0  0  0  0  0  0
   46.3790   34.6120   40.7910 F   0  0  0  0  0  0  0  0  0  0  0  0
   47.9840   35.8350   41.8710 F   0  0  0  0  0  0  0  0  0  0  0  0
   47.9790   33.6170   42.0820 F   0  0  0  0  0  0  0  0  0  0  0  0
   45.8750   33.0260   46.4130 C   0  0  0  0  0  0  0  0  0  0  0  0
   47.1310   33.0920   46.9480 F   0  0  0  0  0  0  0  0  0  0  0  0
   45.6600   31.7700   45.8380 F   0  0  0  0  0  0  0  0  0  0  0  0
   44.9160   33.2190   47.4150 F   0  0  0  0  0  0  0  0  0  0  0  0
   47.2365   33.1254   44.0618 H   0  0  0  0  0  0  0  0  0  0  0  0
   43.8606   36.7206   44.4960 H   0  0  0  0  0  0  0  0  0  0  0  0
  1  6  2  0
  1  2  1  0
  2  3  2  0
  3  4  1  0
  3 11  1  0
  5  4  2  0
  6  5  1  0
  7 10  1  0
  7  1  1  0
  8  7  1  0
  9  7  1  0
 11 12  1  0
 11 14  1  0
 13 11  1  0
  2 15  1  0
  5 16  1  0
M  ISO  2  15  14  16  14
M  END
>  <minimizedAffinity>  (1) 
-4.86465025

>  <minimizedRMSD>  (1) 
1.84529388

$$$$
