
     RDKit          3D

 20 21  0  0  0  0  0  0  0  0999 V2000
   47.5180   34.9620   42.3190 C   0  0  0  0  0  0  0  0  0  0  0  0
   47.7480   34.0340   43.3460 C   0  0  0  0  0  0  0  0  0  0  0  0
   46.6920   33.7380   44.2250 C   0  0  0  0  0  0  0  0  0  0  0  0
   45.5160   34.3620   44.0310 N   0  0  0  0  0  0  0  0  0  0  0  0
   45.3150   35.2590   43.0290 C   0  0  0  0  0  0  0  0  0  0  0  0
   46.3160   35.5530   42.1800 N   0  0  0  0  0  0  0  0  0  0  0  0
   46.8640   32.7820   45.3130 C   0  0  0  0  0  0  0  0  0  0  0  0
   47.1400   31.4460   45.1700 C   0  0  0  0  0  0  0  0  0  0  0  0
   47.2230   30.9060   46.4500 C   0  0  0  0  0  0  0  0  0  0  0  0
   46.9850   31.9790   47.3080 C   0  0  0  0  0  0  0  0  0  0  0  0
   46.7780   33.0680   46.5900 O   0  0  0  0  0  0  0  0  0  0  0  0
   48.6720   35.2400   41.4170 C   0  0  0  0  0  0  0  0  0  0  0  0
   48.3060   35.1680   40.0860 F   0  0  0  0  0  0  0  0  0  0  0  0
   49.1690   36.4970   41.7240 F   0  0  0  0  0  0  0  0  0  0  0  0
   49.7000   34.3430   41.6770 F   0  0  0  0  0  0  0  0  0  0  0  0
   48.7295   33.5506   43.4602 H   0  0  0  0  0  0  0  0  0  0  0  0
   44.3345   35.7439   42.9128 H   0  0  0  0  0  0  0  0  0  0  0  0
   47.2711   30.9035   44.2221 H   0  0  0  0  0  0  0  0  0  0  0  0
   47.4309   29.8613   46.7247 H   0  0  0  0  0  0  0  0  0  0  0  0
   46.9718   31.9269   48.4067 H   0  0  0  0  0  0  0  0  0  0  0  0
  1  2  2  0
  2  3  1  0
  3  7  1  0
  4  3  2  0
  5  4  1  0
  6  1  1  0
  6  5  2  0
  7 11  1  0
  8  7  2  0
  8  9  1  0
  9 10  2  0
 11 10  1  0
 12 15  1  0
 12 14  1  0
 12  1  1  0
 13 12  1  0
  2 16  1  0
  5 17  1  0
  8 18  1  0
  9 19  1  0
 10 20  1  0
M  ISO  5  16  14  17  14  18  14  19  14  20  14
M  END
>  <minimizedAffinity>  (1) 
-4.8549962

>  <minimizedRMSD>  (1) 
0.416229546

$$$$
