
     RDKit          3D

 20 21  0  0  0  0  0  0  0  0999 V2000
   47.5820   34.9570   42.3420 C   0  0  0  0  0  0  0  0  0  0  0  0
   47.8440   33.9600   43.3130 C   0  0  0  0  0  0  0  0  0  0  0  0
   46.8050   33.6630   44.2180 C   0  0  0  0  0  0  0  0  0  0  0  0
   45.6430   34.3390   44.1030 N   0  0  0  0  0  0  0  0  0  0  0  0
   45.4300   35.2820   43.1640 C   0  0  0  0  0  0  0  0  0  0  0  0
   46.4000   35.5810   42.2950 N   0  0  0  0  0  0  0  0  0  0  0  0
   48.7030   35.2510   41.3940 C   0  0  0  0  0  0  0  0  0  0  0  0
   48.3100   35.1690   40.0910 F   0  0  0  0  0  0  0  0  0  0  0  0
   49.1950   36.5240   41.7060 F   0  0  0  0  0  0  0  0  0  0  0  0
   49.7680   34.3740   41.6370 F   0  0  0  0  0  0  0  0  0  0  0  0
   47.0000   32.6440   45.2520 C   0  0  0  0  0  0  0  0  0  0  0  0
   46.0060   32.3860   46.2920 C   0  0  0  0  0  0  0  0  0  0  0  0
   46.0630   31.4280   45.0920 C   0  0  0  0  0  0  0  0  0  0  0  0
   48.8131   33.4416   43.3588 H   0  0  0  0  0  0  0  0  0  0  0  0
   44.4625   35.8029   43.1132 H   0  0  0  0  0  0  0  0  0  0  0  0
   48.0784   32.8480   45.3264 H   0  0  0  0  0  0  0  0  0  0  0  0
   46.3324   32.0376   47.2830 H   0  0  0  0  0  0  0  0  0  0  0  0
   45.2096   32.9858   46.7567 H   0  0  0  0  0  0  0  0  0  0  0  0
   45.2654   31.4327   44.3345 H   0  0  0  0  0  0  0  0  0  0  0  0
   46.1817   30.3448   44.9420 H   0  0  0  0  0  0  0  0  0  0  0  0
  1  2  2  0
  2  3  1  0
  3 11  1  0
  4  3  2  0
  5  4  1  0
  6  1  1  0
  6  5  2  0
  7 10  1  0
  7  9  1  0
  7  1  1  0
  8  7  1  0
 11 12  1  0
 13 11  1  0
 13 12  1  0
  2 14  1  0
  5 15  1  0
 11 16  1  0
 12 17  1  0
 12 18  1  0
 13 19  1  0
 13 20  1  0
M  ISO  7  14  14  15  14  16  13  17  13  18  13  19  13  20  13
M  END
>  <minimizedAffinity>  (1) 
-4.34204531

>  <minimizedRMSD>  (1) 
0.164677754

$$$$
