
     RDKit          3D

 14 14  0  0  0  0  0  0  0  0999 V2000
   47.6730   34.9520   42.3490 C   0  0  0  0  0  0  0  0  0  0  0  0
   47.9240   33.9190   43.2580 C   0  0  0  0  0  0  0  0  0  0  0  0
   46.8950   33.5460   44.1390 C   0  0  0  0  0  0  0  0  0  0  0  0
   45.7180   34.2140   44.0540 N   0  0  0  0  0  0  0  0  0  0  0  0
   45.5050   35.2050   43.1670 C   0  0  0  0  0  0  0  0  0  0  0  0
   46.4740   35.5760   42.3180 N   0  0  0  0  0  0  0  0  0  0  0  0
   48.7930   35.3170   41.4300 C   0  0  0  0  0  0  0  0  0  0  0  0
   48.4150   35.2430   40.1090 F   0  0  0  0  0  0  0  0  0  0  0  0
   49.2090   36.6110   41.7490 F   0  0  0  0  0  0  0  0  0  0  0  0
   49.8930   34.5010   41.6770 F   0  0  0  0  0  0  0  0  0  0  0  0
   47.0690   32.5290   45.0720 O   0  0  0  0  0  0  0  0  0  0  0  0
   48.9002   33.4125   43.2825 H   0  0  0  0  0  0  0  0  0  0  0  0
   44.5298   35.7131   43.1390 H   0  0  0  0  0  0  0  0  0  0  0  0
   46.3284   32.2847   45.6819 H   0  0  0  0  0  0  0  0  0  0  0  0
  1  2  2  0
  2  3  1  0
  3 11  1  0
  4  3  2  0
  5  4  1  0
  6  1  1  0
  6  5  2  0
  7 10  1  0
  7  9  1  0
  7  1  1  0
  8  7  1  0
  2 12  1  0
  5 13  1  0
 11 14  1  0
M  ISO  3  12  14  13  14  14   3
M  END
>  <minimizedAffinity>  (1) 
-4.05209494

>  <minimizedRMSD>  (1) 
0.0126733305

$$$$
