
     RDKit          3D

 40 42  0  0  1  0  0  0  0  0999 V2000
   45.7410   32.9780   46.2980 N   0  0  0  0  0  0  0  0  0  0  0  0
   45.1420   33.1910   47.6110 C   0  0  0  0  0  0  0  0  0  0  0  0
   45.9430   32.3390   48.5850 C   0  0  0  0  0  0  0  0  0  0  0  0
   45.6820   30.8970   48.3240 C   0  0  0  0  0  0  0  0  0  0  0  0
   45.7130   30.6280   46.8340 C   0  0  0  0  0  0  0  0  0  0  0  0
   46.3990   31.7310   46.0920 C   0  0  1  0  0  0  0  0  0  0  0  0
   46.3220   34.8590   43.1710 C   0  0  0  0  0  0  0  0  0  0  0  0
   46.4720   33.8760   44.1630 C   0  0  0  0  0  0  0  0  0  0  0  0
   45.6680   33.9320   45.2860 C   0  0  0  0  0  0  0  0  0  0  0  0
   44.7660   34.9430   45.3790 N   0  0  0  0  0  0  0  0  0  0  0  0
   44.6310   35.8890   44.4120 C   0  0  0  0  0  0  0  0  0  0  0  0
   45.4120   35.8390   43.3100 N   0  0  0  0  0  0  0  0  0  0  0  0
   47.2030   34.7360   41.9580 C   0  0  0  0  0  0  0  0  0  0  0  0
   46.4480   34.6240   40.7970 F   0  0  0  0  0  0  0  0  0  0  0  0
   48.0160   35.8520   41.9220 F   0  0  0  0  0  0  0  0  0  0  0  0
   48.0170   33.6180   42.0850 F   0  0  0  0  0  0  0  0  0  0  0  0
   46.4410   31.3150   44.7050 N   0  0  0  0  0  0  0  0  0  0  0  0
   45.4150   30.4230   44.2910 C   0  0  0  0  0  0  0  0  0  0  0  0
   45.9700   29.9850   42.9190 C   0  0  0  0  0  0  0  0  0  0  0  0
   47.3810   29.6080   43.3940 C   0  0  0  0  0  0  0  0  0  0  0  0
   47.7000   30.8090   44.2660 C   0  0  0  0  0  0  0  0  0  0  0  0
   45.2053   34.2527   47.8915 H   0  0  0  0  0  0  0  0  0  0  0  0
   44.0776   32.9134   47.6164 H   0  0  0  0  0  0  0  0  0  0  0  0
   47.0155   32.5457   48.4547 H   0  0  0  0  0  0  0  0  0  0  0  0
   45.6416   32.5827   49.6145 H   0  0  0  0  0  0  0  0  0  0  0  0
   46.4546   30.2911   48.8200 H   0  0  0  0  0  0  0  0  0  0  0  0
   44.6902   30.6316   48.7189 H   0  0  0  0  0  0  0  0  0  0  0  0
   46.2511   29.6861   46.6519 H   0  0  0  0  0  0  0  0  0  0  0  0
   44.6758   30.5624   46.4735 H   0  0  0  0  0  0  0  0  0  0  0  0
   47.4228   31.9026   46.4559 H   0  0  0  0  0  0  0  0  0  0  0  0
   47.2170   33.0749   44.0481 H   0  0  0  0  0  0  0  0  0  0  0  0
   43.8885   36.6926   44.5261 H   0  0  0  0  0  0  0  0  0  0  0  0
   45.3132   29.5715   44.9799 H   0  0  0  0  0  0  0  0  0  0  0  0
   44.4067   30.8617   44.2618 H   0  0  0  0  0  0  0  0  0  0  0  0
   45.9785   30.8066   42.1876 H   0  0  0  0  0  0  0  0  0  0  0  0
   45.4060   29.2038   42.3884 H   0  0  0  0  0  0  0  0  0  0  0  0
   47.3797   28.6728   43.9731 H   0  0  0  0  0  0  0  0  0  0  0  0
   48.1043   29.4180   42.5873 H   0  0  0  0  0  0  0  0  0  0  0  0
   48.3123   30.5050   45.1278 H   0  0  0  0  0  0  0  0  0  0  0  0
   48.2723   31.5695   43.7145 H   0  0  0  0  0  0  0  0  0  0  0  0
  1  2  1  0
  2  3  1  0
  4  3  1  0
  5  4  1  0
  6  1  1  0
  6  5  1  0
  7 12  2  0
  7  8  1  0
  8  9  2  0
  9 10  1  0
  9  1  1  0
 11 10  2  0
 12 11  1  0
 13 16  1  0
 13  7  1  0
 14 13  1  0
 15 13  1  0
 17 18  1  0
 17  6  1  0
 19 20  1  0
 19 18  1  0
 20 21  1  0
 21 17  1  0
  2 22  1  0
  2 23  1  0
  3 24  1  0
  3 25  1  0
  4 26  1  0
  4 27  1  0
  5 28  1  0
  5 29  1  0
  6 30  1  1
  8 31  1  0
 11 32  1  0
 18 33  1  0
 18 34  1  0
 19 35  1  0
 19 36  1  0
 20 37  1  0
 20 38  1  0
 21 39  1  0
 21 40  1  0
M  ISO  8  22  13  23  13  24  13  25  13  26  13  27  13  28  13  29  13
M  ISO  8  30  13  31  14  32  14  33  13  34  13  35  13  36  13  37  13
M  ISO  3  38  13  39  13  40  13
M  END
>  <minimizedAffinity>  (1) 
-5.39215612

>  <minimizedRMSD>  (1) 
0.515182376

$$$$
