
     RDKit          3D

 18 18  0  0  0  0  0  0  0  0999 V2000
   46.5950   34.6430   43.1120 C   0  0  0  0  0  0  0  0  0  0  0  0
   45.4710   35.4610   43.2370 C   0  0  0  0  0  0  0  0  0  0  0  0
   44.7450   35.3410   44.4390 C   0  0  0  0  0  0  0  0  0  0  0  0
   45.1740   34.4550   45.3870 N   0  0  0  0  0  0  0  0  0  0  0  0
   46.2710   33.6980   45.1950 C   0  0  0  0  0  0  0  0  0  0  0  0
   46.9870   33.7830   44.0660 N   0  0  0  0  0  0  0  0  0  0  0  0
   47.2930   34.8070   41.8730 C   0  0  0  0  0  0  0  0  0  0  0  0
   48.3030   35.5390   41.6700 O   0  0  0  0  0  0  0  0  0  0  0  0
   46.5690   32.8510   46.2550 O   0  0  0  0  0  0  0  0  0  0  0  0
   46.3560   32.4040   48.8750 O   0  0  0  0  0  0  0  0  0  0  0  0
   45.5580   32.6340   47.6050 P   0  0  0  0  0  0  0  0  0  0  0  0
   44.5460   33.9470   47.8640 O   0  0  0  0  0  0  0  0  0  0  0  0
   44.6740   31.2160   47.3330 O   0  0  0  0  0  0  0  0  0  0  0  0
   45.1690   36.1595   42.4427 H   0  0  0  0  0  0  0  0  0  0  0  0
   43.8463   35.9514   44.6116 H   0  0  0  0  0  0  0  0  0  0  0  0
   46.9121   34.2390   41.0114 H   0  0  0  0  0  0  0  0  0  0  0  0
   44.4349   34.0911   48.8371 H   0  0  0  0  0  0  0  0  0  0  0  0
   44.4224   30.8123   48.2012 H   0  0  0  0  0  0  0  0  0  0  0  0
  1  2  2  0
  1  6  1  0
  2  3  1  0
  3  4  2  0
  5  4  1  0
  5  9  1  0
  6  5  2  0
  7  1  1  0
  8  7  2  0
  9 11  1  0
 11 12  1  0
 11 10  2  0
 13 11  1  0
  2 14  1  0
  3 15  1  0
  7 16  1  0
 12 17  1  0
 13 18  1  0
M  ISO  5  14  14  15  14  16   6  17   3  18   3
M  END
>  <minimizedAffinity>  (1) 
-4.69237185

>  <minimizedRMSD>  (1) 
0.885946035

$$$$
