
     RDKit          3D

 27 28  0  0  0  0  0  0  0  0999 V2000
   46.2160   34.6710   43.4200 C   0  0  0  0  0  0  0  0  0  0  0  0
   45.2390   35.6810   43.5700 C   0  0  0  0  0  0  0  0  0  0  0  0
   44.5350   35.7030   44.7700 C   0  0  0  0  0  0  0  0  0  0  0  0
   44.8330   34.7620   45.7030 N   0  0  0  0  0  0  0  0  0  0  0  0
   45.7790   33.8090   45.5160 C   0  0  0  0  0  0  0  0  0  0  0  0
   46.4570   33.7790   44.3750 N   0  0  0  0  0  0  0  0  0  0  0  0
   45.9920   32.8830   46.5760 N   0  0  0  0  0  0  0  0  0  0  0  0
   46.9680   31.8450   46.4700 C   0  0  0  0  0  0  0  0  0  0  0  0
   46.1910   30.5260   46.4120 C   0  0  0  0  0  0  0  0  0  0  0  0
   45.1420   30.5210   47.4800 C   0  0  0  0  0  0  0  0  0  0  0  0
   45.3720   31.6190   48.5130 C   0  0  0  0  0  0  0  0  0  0  0  0
   45.2280   32.9530   47.8060 C   0  0  0  0  0  0  0  0  0  0  0  0
   46.9130   34.6970   42.1610 C   0  0  0  0  0  0  0  0  0  0  0  0
   47.9200   35.4180   41.8810 O   0  0  0  0  0  0  0  0  0  0  0  0
   45.0441   36.4157   42.7749 H   0  0  0  0  0  0  0  0  0  0  0  0
   43.7597   36.4604   44.9576 H   0  0  0  0  0  0  0  0  0  0  0  0
   47.5647   31.9757   45.5552 H   0  0  0  0  0  0  0  0  0  0  0  0
   47.6626   31.8618   47.3228 H   0  0  0  0  0  0  0  0  0  0  0  0
   45.7125   30.4247   45.4267 H   0  0  0  0  0  0  0  0  0  0  0  0
   46.8817   29.6847   46.5707 H   0  0  0  0  0  0  0  0  0  0  0  0
   44.1583   30.6742   47.0121 H   0  0  0  0  0  0  0  0  0  0  0  0
   45.1900   29.5519   47.9983 H   0  0  0  0  0  0  0  0  0  0  0  0
   44.6263   31.5388   49.3177 H   0  0  0  0  0  0  0  0  0  0  0  0
   46.3729   31.5251   48.9595 H   0  0  0  0  0  0  0  0  0  0  0  0
   45.6180   33.7596   48.4442 H   0  0  0  0  0  0  0  0  0  0  0  0
   44.1699   33.1639   47.5916 H   0  0  0  0  0  0  0  0  0  0  0  0
   46.5392   34.0314   41.3690 H   0  0  0  0  0  0  0  0  0  0  0  0
  1  2  2  0
  1  6  1  0
  2  3  1  0
  3  4  2  0
  5  4  1  0
  5  7  1  0
  6  5  2  0
  7 12  1  0
  8  7  1  0
  9  8  1  0
  9 10  1  0
 10 11  1  0
 12 11  1  0
 13  1  1  0
 14 13  2  0
  2 15  1  0
  3 16  1  0
  8 17  1  0
  8 18  1  0
  9 19  1  0
  9 20  1  0
 10 21  1  0
 10 22  1  0
 11 23  1  0
 11 24  1  0
 12 25  1  0
 12 26  1  0
 13 27  1  0
M  ISO  8  15  14  16  14  17  13  18  13  19  13  20  13  21  13  22  13
M  ISO  5  23  13  24  13  25  13  26  13  27   6
M  END
>  <minimizedAffinity>  (1) 
-4.89813328

>  <minimizedRMSD>  (1) 
0.431638151

$$$$
