
     RDKit          3D

 19 20  0  0  0  0  0  0  0  0999 V2000
   46.1740   34.7270   43.4060 C   0  0  0  0  0  0  0  0  0  0  0  0
   45.2480   35.7580   43.5390 C   0  0  0  0  0  0  0  0  0  0  0  0
   44.5250   35.8320   44.7250 C   0  0  0  0  0  0  0  0  0  0  0  0
   44.7640   34.8920   45.6880 N   0  0  0  0  0  0  0  0  0  0  0  0
   45.6660   33.9160   45.5170 C   0  0  0  0  0  0  0  0  0  0  0  0
   46.3720   33.8340   44.3730 N   0  0  0  0  0  0  0  0  0  0  0  0
   45.8150   33.0000   46.6110 C   0  0  0  0  0  0  0  0  0  0  0  0
   45.1710   32.8730   47.8040 C   0  0  0  0  0  0  0  0  0  0  0  0
   45.5230   31.8840   48.6820 C   0  0  0  0  0  0  0  0  0  0  0  0
   46.5540   31.0460   48.2770 C   0  0  0  0  0  0  0  0  0  0  0  0
   47.0290   31.6990   46.5850 S   0  0  0  0  0  0  0  0  0  0  0  0
   46.8840   34.7030   42.1680 C   0  0  0  0  0  0  0  0  0  0  0  0
   47.8880   35.3810   41.8440 O   0  0  0  0  0  0  0  0  0  0  0  0
   45.0932   36.4900   42.7327 H   0  0  0  0  0  0  0  0  0  0  0  0
   43.7805   36.6261   44.8837 H   0  0  0  0  0  0  0  0  0  0  0  0
   44.3614   33.5708   48.0641 H   0  0  0  0  0  0  0  0  0  0  0  0
   45.0189   31.7600   49.6518 H   0  0  0  0  0  0  0  0  0  0  0  0
   46.9905   30.1963   48.8225 H   0  0  0  0  0  0  0  0  0  0  0  0
   46.5048   34.0058   41.4063 H   0  0  0  0  0  0  0  0  0  0  0  0
  1  2  2  0
  1  6  1  0
  2  3  1  0
  3  4  2  0
  5  4  1  0
  5  7  1  0
  6  5  2  0
  7  8  2  0
  8  9  1  0
 10  9  2  0
 11  7  1  0
 11 10  1  0
 12  1  1  0
 13 12  2  0
  2 14  1  0
  3 15  1  0
  8 16  1  0
  9 17  1  0
 10 18  1  0
 12 19  1  0
M  ISO  6  14  14  15  14  16  14  17  14  18  14  19   6
M  END
>  <minimizedAffinity>  (1) 
-4.49031591

>  <minimizedRMSD>  (1) 
0.489603043

$$$$
