
     RDKit          3D

 23 24  0  0  1  0  0  0  0  0999 V2000
   46.4030   34.6940   43.2270 C   0  0  0  0  0  0  0  0  0  0  0  0
   45.3170   35.5320   43.5320 C   0  0  0  0  0  0  0  0  0  0  0  0
   44.7110   35.3550   44.7770 C   0  0  0  0  0  0  0  0  0  0  0  0
   45.2000   34.3890   45.6140 N   0  0  0  0  0  0  0  0  0  0  0  0
   46.2460   33.6140   45.2660 C   0  0  0  0  0  0  0  0  0  0  0  0
   46.8420   33.7660   44.0800 N   0  0  0  0  0  0  0  0  0  0  0  0
   44.7280   33.2360   47.8660 O   0  0  0  0  0  0  0  0  0  0  0  0
   45.6760   32.5250   47.4000 C   0  0  0  0  0  0  0  0  0  0  0  0
   46.6540   32.6130   46.2900 C   0  0  1  0  0  0  0  0  0  0  0  0
   46.7040   31.2110   45.7870 C   0  0  0  0  0  0  0  0  0  0  0  0
   46.6010   30.3920   47.0540 C   0  0  0  0  0  0  0  0  0  0  0  0
   45.9900   31.2820   48.0200 N   0  0  0  0  0  0  0  0  0  0  0  0
   46.9750   34.9290   41.9410 C   0  0  0  0  0  0  0  0  0  0  0  0
   48.1210   35.4210   41.6960 O   0  0  0  0  0  0  0  0  0  0  0  0
   44.9606   36.2928   42.8220 H   0  0  0  0  0  0  0  0  0  0  0  0
   43.8574   35.9795   45.0793 H   0  0  0  0  0  0  0  0  0  0  0  0
   47.6472   32.9746   46.5947 H   0  0  0  0  0  0  0  0  0  0  0  0
   45.8609   31.0028   45.1118 H   0  0  0  0  0  0  0  0  0  0  0  0
   47.6091   30.9922   45.2014 H   0  0  0  0  0  0  0  0  0  0  0  0
   45.9714   29.5047   46.8919 H   0  0  0  0  0  0  0  0  0  0  0  0
   47.5808   30.0224   47.3909 H   0  0  0  0  0  0  0  0  0  0  0  0
   45.8097   31.0505   49.0073 H   0  0  0  0  0  0  0  0  0  0  0  0
   46.3599   34.6558   41.0709 H   0  0  0  0  0  0  0  0  0  0  0  0
  1  2  2  0
  1  6  1  0
  2  3  1  0
  3  4  2  0
  5  4  1  0
  6  5  2  0
  8  7  2  0
  8 12  1  0
  9  5  1  0
  9  8  1  0
 10  9  1  0
 10 11  1  0
 11 12  1  0
 13  1  1  0
 14 13  2  0
  2 15  1  0
  3 16  1  0
  9 17  1  1
 10 18  1  0
 10 19  1  0
 11 20  1  0
 11 21  1  0
 12 22  1  0
 13 23  1  0
M  ISO  8  15  14  16  14  17  13  18  13  19  13  20  13  21  13  22  10
M  ISO  1  23   6
M  END
>  <minimizedAffinity>  (1) 
-4.31421185

>  <minimizedRMSD>  (1) 
1.0172298

$$$$
