
     RDKit          3D

 18 18  0  0  0  0  0  0  0  0999 V2000
   46.1790   34.7720   43.3490 C   0  0  0  0  0  0  0  0  0  0  0  0
   45.1750   35.7180   43.5900 C   0  0  0  0  0  0  0  0  0  0  0  0
   44.5500   35.6400   44.8490 C   0  0  0  0  0  0  0  0  0  0  0  0
   44.9390   34.6860   45.7330 N   0  0  0  0  0  0  0  0  0  0  0  0
   45.9220   33.8020   45.4290 C   0  0  0  0  0  0  0  0  0  0  0  0
   46.5250   33.8560   44.2480 N   0  0  0  0  0  0  0  0  0  0  0  0
   46.7870   34.8890   42.0540 C   0  0  0  0  0  0  0  0  0  0  0  0
   47.9320   35.3830   41.8010 O   0  0  0  0  0  0  0  0  0  0  0  0
   46.2300   32.8220   46.5030 C   0  0  0  0  0  0  0  0  0  0  0  0
   45.2390   32.8410   47.6300 C   0  0  0  0  0  0  0  0  0  0  0  0
   44.8926   36.4742   42.8428 H   0  0  0  0  0  0  0  0  0  0  0  0
   43.7511   36.3479   45.1149 H   0  0  0  0  0  0  0  0  0  0  0  0
   46.2069   34.5154   41.1973 H   0  0  0  0  0  0  0  0  0  0  0  0
   46.2383   31.8138   46.0631 H   0  0  0  0  0  0  0  0  0  0  0  0
   47.2070   33.0997   46.9253 H   0  0  0  0  0  0  0  0  0  0  0  0
   45.7755   32.8307   48.5902 H   0  0  0  0  0  0  0  0  0  0  0  0
   44.6248   33.7511   47.5629 H   0  0  0  0  0  0  0  0  0  0  0  0
   44.5904   31.9551   47.5629 H   0  0  0  0  0  0  0  0  0  0  0  0
  1  2  2  0
  1  6  1  0
  2  3  1  0
  3  4  2  0
  5  4  1  0
  5  9  1  0
  6  5  2  0
  7  1  1  0
  8  7  2  0
  9 10  1  0
  2 11  1  0
  3 12  1  0
  7 13  1  0
  9 14  1  0
  9 15  1  0
 10 16  1  0
 10 17  1  0
 10 18  1  0
M  ISO  8  11  14  12  14  13   6  14   8  15   8  16   8  17   8  18   8
M  END
>  <minimizedAffinity>  (1) 
-3.6255002

>  <minimizedRMSD>  (1) 
0.522685766

$$$$
