
     RDKit          3D

 14 14  0  0  0  0  0  0  0  0999 V2000
   46.1490   34.8320   43.2890 C   0  0  0  0  0  0  0  0  0  0  0  0
   45.2140   35.8570   43.4470 C   0  0  0  0  0  0  0  0  0  0  0  0
   44.5070   35.9030   44.6540 C   0  0  0  0  0  0  0  0  0  0  0  0
   44.7740   34.9470   45.5980 N   0  0  0  0  0  0  0  0  0  0  0  0
   45.6820   33.9880   45.3870 C   0  0  0  0  0  0  0  0  0  0  0  0
   46.3730   33.9180   44.2450 N   0  0  0  0  0  0  0  0  0  0  0  0
   46.8460   34.8290   42.0360 C   0  0  0  0  0  0  0  0  0  0  0  0
   47.9610   35.3670   41.7920 O   0  0  0  0  0  0  0  0  0  0  0  0
   45.9160   33.0000   46.4340 C   0  0  0  0  0  0  0  0  0  0  0  0
   45.2410   32.9250   47.4950 O   0  0  0  0  0  0  0  0  0  0  0  0
   45.0399   36.5992   42.6540 H   0  0  0  0  0  0  0  0  0  0  0  0
   43.7570   36.6859   44.8396 H   0  0  0  0  0  0  0  0  0  0  0  0
   46.3585   34.3036   41.2015 H   0  0  0  0  0  0  0  0  0  0  0  0
   46.7315   32.2763   46.2884 H   0  0  0  0  0  0  0  0  0  0  0  0
  1  2  2  0
  1  6  1  0
  2  3  1  0
  3  4  2  0
  5  4  1  0
  5  9  1  0
  6  5  2  0
  7  1  1  0
  8  7  2  0
  9 10  2  0
  2 11  1  0
  3 12  1  0
  7 13  1  0
  9 14  1  0
M  ISO  4  11  14  12  14  13   6  14   6
M  END
>  <minimizedAffinity>  (1) 
-3.62781024

>  <minimizedRMSD>  (1) 
0.301987857

$$$$
