
     RDKit          3D

 15 15  0  0  0  0  0  0  0  0999 V2000
   46.2440   34.8170   43.1970 C   0  0  0  0  0  0  0  0  0  0  0  0
   45.2820   35.8310   43.3250 C   0  0  0  0  0  0  0  0  0  0  0  0
   44.5540   35.8650   44.5210 C   0  0  0  0  0  0  0  0  0  0  0  0
   44.8250   34.9260   45.4610 N   0  0  0  0  0  0  0  0  0  0  0  0
   45.7560   33.9800   45.2840 C   0  0  0  0  0  0  0  0  0  0  0  0
   46.4670   33.9180   44.1610 N   0  0  0  0  0  0  0  0  0  0  0  0
   46.9690   34.8200   41.9530 C   0  0  0  0  0  0  0  0  0  0  0  0
   48.0750   35.4240   41.7480 O   0  0  0  0  0  0  0  0  0  0  0  0
   45.8930   33.0540   46.4370 C   0  0  0  0  0  0  0  0  0  0  0  0
   45.1081   36.5644   42.5238 H   0  0  0  0  0  0  0  0  0  0  0  0
   43.7842   36.6317   44.6929 H   0  0  0  0  0  0  0  0  0  0  0  0
   46.5358   34.2575   41.1129 H   0  0  0  0  0  0  0  0  0  0  0  0
   45.8090   33.6219   47.3753 H   0  0  0  0  0  0  0  0  0  0  0  0
   45.0973   32.2957   46.3948 H   0  0  0  0  0  0  0  0  0  0  0  0
   46.8742   32.5586   46.3948 H   0  0  0  0  0  0  0  0  0  0  0  0
  1  2  2  0
  1  6  1  0
  2  3  1  0
  3  4  2  0
  5  4  1  0
  5  9  1  0
  6  5  2  0
  7  1  1  0
  8  7  2  0
  2 10  1  0
  3 11  1  0
  7 12  1  0
  9 13  1  0
  9 14  1  0
  9 15  1  0
M  ISO  6  10  14  11  14  12   6  13   8  14   8  15   8
M  END
>  <minimizedAffinity>  (1) 
-3.46344233

>  <minimizedRMSD>  (1) 
0.135403857

$$$$
