
     RDKit          3D

 24 26  0  0  0  0  0  0  0  0999 V2000
   46.9780   34.7950   42.1760 N   0  0  0  0  0  0  0  0  0  0  0  0
   48.1620   35.4300   42.0430 C   0  0  0  0  0  0  0  0  0  0  0  0
   48.6640   35.2790   40.8230 N   0  0  0  0  0  0  0  0  0  0  0  0
   47.8220   34.5400   40.1190 C   0  0  0  0  0  0  0  0  0  0  0  0
   47.6990   34.0100   38.8470 C   0  0  0  0  0  0  0  0  0  0  0  0
   46.6620   33.2700   38.4550 N   0  0  0  0  0  0  0  0  0  0  0  0
   45.6590   33.0070   39.3280 C   0  0  0  0  0  0  0  0  0  0  0  0
   45.7080   33.4920   40.5900 N   0  0  0  0  0  0  0  0  0  0  0  0
   46.7590   34.2360   40.9740 C   0  0  0  0  0  0  0  0  0  0  0  0
   44.5260   35.6070   44.8770 C   0  0  0  0  0  0  0  0  0  0  0  0
   45.2010   35.7170   43.6430 C   0  0  0  0  0  0  0  0  0  0  0  0
   46.2200   34.7940   43.3810 C   0  0  0  0  0  0  0  0  0  0  0  0
   46.5150   33.8430   44.3130 N   0  0  0  0  0  0  0  0  0  0  0  0
   45.8410   33.7750   45.4820 C   0  0  0  0  0  0  0  0  0  0  0  0
   44.8550   34.6540   45.7580 N   0  0  0  0  0  0  0  0  0  0  0  0
   44.9090   36.6760   42.6960 O   0  0  0  0  0  0  0  0  0  0  0  0
   48.7840   34.3160   37.9620 N   0  0  0  0  0  0  0  0  0  0  0  0
   48.6504   36.0017   42.8459 H   0  0  0  0  0  0  0  0  0  0  0  0
   44.8014   32.3965   39.0089 H   0  0  0  0  0  0  0  0  0  0  0  0
   43.7185   36.3138   45.1186 H   0  0  0  0  0  0  0  0  0  0  0  0
   46.0982   32.9963   46.2152 H   0  0  0  0  0  0  0  0  0  0  0  0
   45.4174   36.7042   41.8470 H   0  0  0  0  0  0  0  0  0  0  0  0
   48.7753   33.9619   36.9948 H   0  0  0  0  0  0  0  0  0  0  0  0
   49.5725   34.8900   38.2932 H   0  0  0  0  0  0  0  0  0  0  0  0
  1 12  1  0
  2  1  1  0
  3  2  2  0
  4  3  1  0
  4  9  2  0
  5  4  1  0
  6  5  2  0
  6  7  1  0
  7  8  2  0
  8  9  1  0
  9  1  1  0
 10 15  2  0
 11 10  1  0
 12 11  2  0
 12 13  1  0
 13 14  2  0
 14 15  1  0
 16 11  1  0
 17  5  1  0
  2 18  1  0
  7 19  1  0
 10 20  1  0
 14 21  1  0
 16 22  1  0
 17 23  1  0
 17 24  1  0
M  ISO  5  18  14  19  14  20  14  21  14  22   3
M  END
>  <minimizedAffinity>  (1) 
-5.5138855

>  <minimizedRMSD>  (1) 
1.15932298

$$$$
