
     RDKit          3D

 21 22  0  0  0  0  0  0  0  0999 V2000
   44.4620   35.7150   45.0960 C   0  0  0  0  0  0  0  0  0  0  0  0
   45.0500   35.7420   43.8010 C   0  0  0  0  0  0  0  0  0  0  0  0
   45.9680   34.7620   43.4680 C   0  0  0  0  0  0  0  0  0  0  0  0
   46.2740   33.8000   44.3960 N   0  0  0  0  0  0  0  0  0  0  0  0
   45.6970   33.7890   45.6310 C   0  0  0  0  0  0  0  0  0  0  0  0
   44.8070   34.7420   45.9540 N   0  0  0  0  0  0  0  0  0  0  0  0
   45.0390   33.3900   41.1400 F   0  0  0  0  0  0  0  0  0  0  0  0
   46.2610   34.0100   41.0250 C   0  0  0  0  0  0  0  0  0  0  0  0
   46.6320   34.6650   42.1660 C   0  0  0  0  0  0  0  0  0  0  0  0
   47.8650   35.3200   42.0860 C   0  0  0  0  0  0  0  0  0  0  0  0
   48.7140   35.3800   41.0430 C   0  0  0  0  0  0  0  0  0  0  0  0
   48.2890   34.6930   39.8970 C   0  0  0  0  0  0  0  0  0  0  0  0
   47.0840   34.0220   39.8850 C   0  0  0  0  0  0  0  0  0  0  0  0
   44.7450   36.7220   42.8460 O   0  0  0  0  0  0  0  0  0  0  0  0
   43.7323   36.4834   45.3912 H   0  0  0  0  0  0  0  0  0  0  0  0
   45.9582   33.0056   46.3577 H   0  0  0  0  0  0  0  0  0  0  0  0
   48.1822   35.8556   42.9929 H   0  0  0  0  0  0  0  0  0  0  0  0
   49.6679   35.9261   41.0865 H   0  0  0  0  0  0  0  0  0  0  0  0
   48.9231   34.6891   38.9982 H   0  0  0  0  0  0  0  0  0  0  0  0
   46.7641   33.4918   38.9759 H   0  0  0  0  0  0  0  0  0  0  0  0
   45.1803   36.6994   41.9571 H   0  0  0  0  0  0  0  0  0  0  0  0
  1  6  2  0
  2  1  1  0
  3  2  2  0
  3  4  1  0
  4  5  2  0
  5  6  1  0
  8  7  1  0
  8  9  2  0
  9  3  1  0
 10  9  1  0
 11 10  2  0
 12 11  1  0
 13 12  2  0
 13  8  1  0
 14  2  1  0
  1 15  1  0
  5 16  1  0
 10 17  1  0
 11 18  1  0
 12 19  1  0
 13 20  1  0
 14 21  1  0
M  ISO  7  15  14  16  14  17  14  18  14  19  14  20  14  21   3
M  END
>  <minimizedAffinity>  (1) 
-5.43175983

>  <minimizedRMSD>  (1) 
0.790440857

$$$$
