
     RDKit          3D

 28 29  0  0  1  0  0  0  0  0999 V2000
   48.0970   34.9300   42.0460 C   0  0  2  0  0  0  0  0  0  0  0  0
   46.6010   34.8270   42.0040 C   0  0  1  0  0  0  0  0  0  0  0  0
   46.1260   33.7440   41.2810 O   0  0  0  0  0  0  0  0  0  0  0  0
   46.6180   33.7280   39.9960 C   0  0  0  0  0  0  0  0  0  0  0  0
   48.0790   33.4110   40.0160 C   0  0  2  0  0  0  0  0  0  0  0  0
   48.8410   34.0120   41.1550 C   0  0  2  0  0  0  0  0  0  0  0  0
   44.6170   35.5660   45.1490 C   0  0  0  0  0  0  0  0  0  0  0  0
   45.1440   35.7250   43.8580 C   0  0  0  0  0  0  0  0  0  0  0  0
   45.9950   34.7290   43.3740 C   0  0  0  0  0  0  0  0  0  0  0  0
   46.2730   33.6640   44.1590 N   0  0  0  0  0  0  0  0  0  0  0  0
   45.7500   33.5350   45.4010 C   0  0  0  0  0  0  0  0  0  0  0  0
   44.9300   34.4880   45.8780 N   0  0  0  0  0  0  0  0  0  0  0  0
   44.8680   36.8170   43.0390 O   0  0  0  0  0  0  0  0  0  0  0  0
   48.4790   34.7070   43.3780 O   0  0  0  0  0  0  0  0  0  0  0  0
   48.6280   33.7540   38.7630 O   0  0  0  0  0  0  0  0  0  0  0  0
   49.4280   32.9840   41.9270 O   0  0  0  0  0  0  0  0  0  0  0  0
   48.3592   35.9299   41.6698 H   0  0  0  0  0  0  0  0  0  0  0  0
   46.3005   35.7587   41.5023 H   0  0  0  0  0  0  0  0  0  0  0  0
   46.4648   34.7146   39.5342 H   0  0  0  0  0  0  0  0  0  0  0  0
   46.0880   32.9596   39.4141 H   0  0  0  0  0  0  0  0  0  0  0  0
   48.1783   32.3300   40.1934 H   0  0  0  0  0  0  0  0  0  0  0  0
   49.5915   34.6520   40.6680 H   0  0  0  0  0  0  0  0  0  0  0  0
   43.9437   36.3307   45.5636 H   0  0  0  0  0  0  0  0  0  0  0  0
   45.9943   32.6563   46.0160 H   0  0  0  0  0  0  0  0  0  0  0  0
   45.2705   36.8729   42.1363 H   0  0  0  0  0  0  0  0  0  0  0  0
   47.8038   35.1012   43.9853 H   0  0  0  0  0  0  0  0  0  0  0  0
   49.4597   34.2736   38.8982 H   0  0  0  0  0  0  0  0  0  0  0  0
   49.3122   33.1867   42.8891 H   0  0  0  0  0  0  0  0  0  0  0  0
  1 14  1  0
  2  1  1  0
  2  9  1  0
  3  2  1  0
  4  5  1  0
  4  3  1  0
  5 15  1  0
  5  6  1  0
  6 16  1  0
  6  1  1  0
  7 12  2  0
  8  7  1  0
  9  8  2  0
  9 10  1  0
 10 11  2  0
 11 12  1  0
 13  8  1  0
  1 17  1  6
  2 18  1  6
  4 19  1  0
  4 20  1  0
  5 21  1  1
  6 22  1  6
  7 23  1  0
 11 24  1  0
 13 25  1  0
 14 26  1  0
 15 27  1  0
 16 28  1  0
M  ISO  8  17  13  18  13  19  13  20  13  21  13  22  13  23  14  24  14
M  ISO  4  25   3  26   3  27   3  28   3
M  END
>  <minimizedAffinity>  (1) 
-5.11633205

>  <minimizedRMSD>  (1) 
0.780836761

$$$$
