
     RDKit          3D

 17 17  0  0  0  0  0  0  0  0999 V2000
   44.5600   35.5450   45.0320 C   0  0  0  0  0  0  0  0  0  0  0  0
   45.1420   35.7780   43.7630 C   0  0  0  0  0  0  0  0  0  0  0  0
   46.1360   34.9040   43.3340 C   0  0  0  0  0  0  0  0  0  0  0  0
   46.4970   33.8850   44.1360 N   0  0  0  0  0  0  0  0  0  0  0  0
   45.9280   33.6810   45.3440 C   0  0  0  0  0  0  0  0  0  0  0  0
   44.9660   34.5190   45.7690 N   0  0  0  0  0  0  0  0  0  0  0  0
   44.7750   36.8260   42.9300 O   0  0  0  0  0  0  0  0  0  0  0  0
   46.7120   35.1280   42.0910 O   0  0  0  0  0  0  0  0  0  0  0  0
   48.2640   33.3470   41.0660 O   0  0  0  0  0  0  0  0  0  0  0  0
   48.3240   34.7000   41.7380 P   0  0  0  0  0  0  0  0  0  0  0  0
   49.1750   34.6150   43.1870 O   0  0  0  0  0  0  0  0  0  0  0  0
   49.0200   35.8230   40.6740 O   0  0  0  0  0  0  0  0  0  0  0  0
   43.7716   36.2141   45.4070 H   0  0  0  0  0  0  0  0  0  0  0  0
   46.2483   32.8379   45.9737 H   0  0  0  0  0  0  0  0  0  0  0  0
   45.2181   36.9389   42.0519 H   0  0  0  0  0  0  0  0  0  0  0  0
   48.5421   34.6782   43.9456 H   0  0  0  0  0  0  0  0  0  0  0  0
   49.4638   36.5391   41.1940 H   0  0  0  0  0  0  0  0  0  0  0  0
  1  6  2  0
  2  1  1  0
  3  2  2  0
  3  4  1  0
  4  5  2  0
  5  6  1  0
  7  2  1  0
  8  3  1  0
  9 10  2  0
 10  8  1  0
 10 11  1  0
 12 10  1  0
  1 13  1  0
  5 14  1  0
  7 15  1  0
 11 16  1  0
 12 17  1  0
M  ISO  5  13  14  14  14  15   3  16   3  17   3
M  END
>  <minimizedAffinity>  (1) 
-4.68115044

>  <minimizedRMSD>  (1) 
0.424354851

$$$$
