
     RDKit          3D

 18 18  0  0  0  0  0  0  0  0999 V2000
   44.5300   35.7450   44.9320 C   0  0  0  0  0  0  0  0  0  0  0  0
   45.1800   35.8430   43.6970 C   0  0  0  0  0  0  0  0  0  0  0  0
   46.1300   34.8540   43.3930 C   0  0  0  0  0  0  0  0  0  0  0  0
   46.3500   33.8860   44.3040 N   0  0  0  0  0  0  0  0  0  0  0  0
   45.7120   33.8120   45.4890 C   0  0  0  0  0  0  0  0  0  0  0  0
   44.7950   34.7620   45.7880 N   0  0  0  0  0  0  0  0  0  0  0  0
   48.9270   34.4510   43.1140 N   0  0  0  0  0  0  0  0  0  0  0  0
   48.2690   34.9770   42.1130 C   0  0  0  0  0  0  0  0  0  0  0  0
   46.8490   34.8600   42.1620 N   0  0  0  0  0  0  0  0  0  0  0  0
   48.8490   35.6470   40.9970 N   0  0  0  0  0  0  0  0  0  0  0  0
   49.9690   34.4870   43.1660 H   0  0  0  0  0  0  0  0  0  0  0  0
   44.9420   36.8420   42.7760 O   0  0  0  0  0  0  0  0  0  0  0  0
   43.7790   36.5018   45.2026 H   0  0  0  0  0  0  0  0  0  0  0  0
   45.9313   32.9988   46.1965 H   0  0  0  0  0  0  0  0  0  0  0  0
   46.3253   34.7771   41.2789 H   0  0  0  0  0  0  0  0  0  0  0  0
   49.8719   35.7483   40.9318 H   0  0  0  0  0  0  0  0  0  0  0  0
   48.2453   36.0300   40.2556 H   0  0  0  0  0  0  0  0  0  0  0  0
   45.4373   36.8533   41.9189 H   0  0  0  0  0  0  0  0  0  0  0  0
  1  6  2  0
  2  1  1  0
  3  2  2  0
  3  4  1  0
  4  5  2  0
  5  6  1  0
  7 11  1  0
  8  9  1  0
  8  7  2  0
  9  3  1  0
 10  8  1  0
 12  2  1  0
  1 13  1  0
  5 14  1  0
  9 15  1  0
 10 16  1  0
 10 17  1  0
 12 18  1  0
M  ISO  3  13  14  14  14  18   3
M  END
>  <minimizedAffinity>  (1) 
-4.50020838

>  <minimizedRMSD>  (1) 
0.442292988

$$$$
