
     RDKit          3D

 13 13  0  0  0  0  0  0  0  0999 V2000
   44.5200   35.5950   45.1040 C   0  0  0  0  0  0  0  0  0  0  0  0
   45.0710   35.7530   43.8250 C   0  0  0  0  0  0  0  0  0  0  0  0
   46.0260   34.8250   43.4250 C   0  0  0  0  0  0  0  0  0  0  0  0
   46.3740   33.8370   44.2680 N   0  0  0  0  0  0  0  0  0  0  0  0
   45.8250   33.7110   45.4980 C   0  0  0  0  0  0  0  0  0  0  0  0
   44.8930   34.6040   45.9050 N   0  0  0  0  0  0  0  0  0  0  0  0
   46.6160   34.9540   42.1120 C   0  0  0  0  0  0  0  0  0  0  0  0
   47.7800   35.3770   41.8810 O   0  0  0  0  0  0  0  0  0  0  0  0
   44.7160   36.7690   42.9550 O   0  0  0  0  0  0  0  0  0  0  0  0
   43.7599   36.3096   45.4527 H   0  0  0  0  0  0  0  0  0  0  0  0
   46.1335   32.8898   46.1617 H   0  0  0  0  0  0  0  0  0  0  0  0
   46.0016   34.6603   41.2481 H   0  0  0  0  0  0  0  0  0  0  0  0
   45.1414   36.8280   42.0630 H   0  0  0  0  0  0  0  0  0  0  0  0
  1  6  2  0
  2  1  1  0
  3  2  2  0
  3  4  1  0
  4  5  2  0
  5  6  1  0
  7  3  1  0
  8  7  2  0
  9  2  1  0
  1 10  1  0
  5 11  1  0
  7 12  1  0
  9 13  1  0
M  ISO  4  10  14  11  14  12   6  13   3
M  END
>  <minimizedAffinity>  (1) 
-3.48567271

>  <minimizedRMSD>  (1) 
0.303763539

$$$$
