
     RDKit          3D

 23 24  0  0  1  0  0  0  0  0999 V2000
   45.4790   33.4830   46.3600 C   0  0  0  0  0  0  0  0  0  0  0  0
   45.2160   34.4210   45.3560 C   0  0  0  0  0  0  0  0  0  0  0  0
   45.9380   34.2980   44.1760 C   0  0  0  0  0  0  0  0  0  0  0  0
   46.8520   33.2950   44.0400 N   0  0  0  0  0  0  0  0  0  0  0  0
   47.0790   32.4070   45.0330 C   0  0  0  0  0  0  0  0  0  0  0  0
   46.3840   32.5140   46.1880 N   0  0  0  0  0  0  0  0  0  0  0  0
   44.6610   34.8050   42.1050 C   0  0  1  0  0  0  0  0  0  0  0  0
   45.7090   35.2580   43.0730 C   0  0  2  0  0  0  0  0  0  0  0  0
   46.9560   35.3200   42.2090 C   0  0  0  0  0  0  0  0  0  0  0  0
   46.8140   34.2250   41.3820 O   0  0  0  0  0  0  0  0  0  0  0  0
   45.4750   34.1310   41.0380 C   0  0  0  0  0  0  0  0  0  0  0  0
   43.7740   33.8830   42.6750 O   0  0  0  0  0  0  0  0  0  0  0  0
   44.2930   35.4440   45.4750 O   0  0  0  0  0  0  0  0  0  0  0  0
   44.9296   33.5440   47.3110 H   0  0  0  0  0  0  0  0  0  0  0  0
   47.8213   31.6056   44.9031 H   0  0  0  0  0  0  0  0  0  0  0  0
   44.0325   35.6354   41.7508 H   0  0  0  0  0  0  0  0  0  0  0  0
   45.4231   36.2016   43.5607 H   0  0  0  0  0  0  0  0  0  0  0  0
   46.9884   36.2532   41.6276 H   0  0  0  0  0  0  0  0  0  0  0  0
   47.8888   35.3056   42.7918 H   0  0  0  0  0  0  0  0  0  0  0  0
   45.3043   34.6278   40.0716 H   0  0  0  0  0  0  0  0  0  0  0  0
   45.1814   33.0745   40.9505 H   0  0  0  0  0  0  0  0  0  0  0  0
   43.8284   33.9395   43.6619 H   0  0  0  0  0  0  0  0  0  0  0  0
   44.1546   36.0755   44.7253 H   0  0  0  0  0  0  0  0  0  0  0  0
  2 13  1  0
  2  1  2  0
  3  2  1  0
  4  3  2  0
  4  5  1  0
  5  6  2  0
  6  1  1  0
  7 12  1  0
  7  8  1  0
  8  3  1  0
  9  8  1  0
 10  9  1  0
 11 10  1  0
 11  7  1  0
  1 14  1  0
  5 15  1  0
  7 16  1  6
  8 17  1  1
  9 18  1  0
  9 19  1  0
 11 20  1  0
 11 21  1  0
 12 22  1  0
 13 23  1  0
M  ISO  8  14  14  15  14  16  13  17  13  18  13  19  13  20  13  21  13
M  ISO  2  22   3  23   3
M  END
>  <minimizedAffinity>  (1) 
-4.35724258

>  <minimizedRMSD>  (1) 
2.71115708

$$$$
