
     RDKit          3D

 28 31  0  0  1  0  0  0  0  0999 V2000
   44.5140   34.2730   41.4120 C   0  0  1  0  0  0  0  0  0  0  0  0
   45.6270   34.2560   40.5030 C   0  0  2  0  0  0  0  0  0  0  0  0
   44.7750   33.0540   40.6710 C   0  0  0  0  0  0  0  0  0  0  0  0
   44.4890   35.6290   43.4430 C   0  0  0  0  0  0  0  0  0  0  0  0
   44.7660   34.4070   42.8490 C   0  0  0  0  0  0  0  0  0  0  0  0
   45.2220   33.3310   43.6150 C   0  0  0  0  0  0  0  0  0  0  0  0
   45.3690   33.5660   44.9630 N   0  0  0  0  0  0  0  0  0  0  0  0
   45.0970   34.7540   45.5310 C   0  0  0  0  0  0  0  0  0  0  0  0
   44.6550   35.7880   44.7610 N   0  0  0  0  0  0  0  0  0  0  0  0
   47.0310   34.0230   40.8920 C   0  0  1  0  0  0  0  0  0  0  0  0
   47.8780   34.3910   40.0580 O   0  0  0  0  0  0  0  0  0  0  0  0
   48.3570   34.3480   41.4160 C   0  0  2  0  0  0  0  0  0  0  0  0
   49.0270   33.1450   42.0800 C   0  0  0  0  0  0  0  0  0  0  0  0
   48.8210   34.3600   42.7930 C   0  0  1  0  0  0  0  0  0  0  0  0
   49.9650   35.1950   43.0760 N   0  0  0  0  0  0  0  0  0  0  0  0
   43.6089   34.8844   41.5427 H   0  0  0  0  0  0  0  0  0  0  0  0
   45.9292   34.9835   39.7353 H   0  0  0  0  0  0  0  0  0  0  0  0
   44.0956   32.7398   39.8649 H   0  0  0  0  0  0  0  0  0  0  0  0
   44.9473   31.9989   40.9299 H   0  0  0  0  0  0  0  0  0  0  0  0
   44.1321   36.4693   42.8294 H   0  0  0  0  0  0  0  0  0  0  0  0
   45.4502   32.3528   43.1666 H   0  0  0  0  0  0  0  0  0  0  0  0
   45.2309   34.8910   46.6142 H   0  0  0  0  0  0  0  0  0  0  0  0
   46.3905   33.3421   41.4718 H   0  0  0  0  0  0  0  0  0  0  0  0
   48.4368   32.2507   42.3288 H   0  0  0  0  0  0  0  0  0  0  0  0
   49.8927   32.5052   41.8537 H   0  0  0  0  0  0  0  0  0  0  0  0
   48.3443   34.5789   43.7599 H   0  0  0  0  0  0  0  0  0  0  0  0
   50.0832   35.2813   44.0955 H   0  0  0  0  0  0  0  0  0  0  0  0
   50.8096   34.7703   42.6671 H   0  0  0  0  0  0  0  0  0  0  0  0
  1  5  1  0
  2  3  1  0
  2 10  1  0
  2  1  1  0
  3  1  1  0
  4  9  2  0
  5  4  1  0
  5  6  2  0
  6  7  1  0
  7  8  2  0
  9  8  1  0
 10 12  1  0
 11 10  1  0
 12 11  1  6
 12 13  1  0
 12 14  1  0
 13 14  1  0
 14 15  1  0
  1 16  1  6
  2 17  1  6
  3 18  1  0
  3 19  1  0
  4 20  1  0
  6 21  1  0
  8 22  1  0
 10 23  1  6
 13 24  1  0
 13 25  1  0
 14 26  1  1
 15 27  1  0
 15 28  1  0
M  ISO  8  16  13  17  13  18  13  19  13  20  14  21  14  22  14  23  13
M  ISO  5  24  13  25  13  26  13  27   5  28   5
M  END
>  <minimizedAffinity>  (1) 
-4.77203274

>  <minimizedRMSD>  (1) 
0.887353778

$$$$
