
     RDKit          3D

 17 17  0  0  0  0  0  0  0  0999 V2000
   45.2190   33.1510   47.2760 C   0  0  0  0  0  0  0  0  0  0  0  0
   45.9940   33.3020   46.1130 C   0  0  0  0  0  0  0  0  0  0  0  0
   46.7940   32.2100   45.6990 C   0  0  0  0  0  0  0  0  0  0  0  0
   46.7560   31.0860   46.4630 N   0  0  0  0  0  0  0  0  0  0  0  0
   46.0020   30.9850   47.5680 C   0  0  0  0  0  0  0  0  0  0  0  0
   45.2380   32.0160   47.9690 N   0  0  0  0  0  0  0  0  0  0  0  0
   44.4590   34.2220   47.6480 O   0  0  0  0  0  0  0  0  0  0  0  0
   46.0230   34.4670   45.3340 O   0  0  0  0  0  0  0  0  0  0  0  0
   45.7680   35.3530   42.8250 O   0  0  0  0  0  0  0  0  0  0  0  0
   45.0120   34.7060   43.9820 P   0  0  0  0  0  0  0  0  0  0  0  0
   44.3450   33.2590   43.4080 O   0  0  0  0  0  0  0  0  0  0  0  0
   43.7480   35.7200   44.4790 O   0  0  0  0  0  0  0  0  0  0  0  0
   47.4204   32.2684   44.7967 H   0  0  0  0  0  0  0  0  0  0  0  0
   46.0089   30.0518   48.1502 H   0  0  0  0  0  0  0  0  0  0  0  0
   44.4716   35.0502   47.1057 H   0  0  0  0  0  0  0  0  0  0  0  0
   44.0826   32.6898   44.1743 H   0  0  0  0  0  0  0  0  0  0  0  0
   43.7154   35.7462   45.4681 H   0  0  0  0  0  0  0  0  0  0  0  0
  1  7  1  0
  1  6  2  0
  2  1  1  0
  3  2  2  0
  3  4  1  0
  4  5  2  0
  5  6  1  0
  8  2  1  0
  9 10  2  0
 10 12  1  0
 10  8  1  0
 11 10  1  0
  3 13  1  0
  5 14  1  0
  7 15  1  0
 11 16  1  0
 12 17  1  0
M  ISO  5  13  14  14  14  15   3  16   3  17   3
M  END
>  <minimizedAffinity>  (1) 
-4.53787327

>  <minimizedRMSD>  (1) 
3.94645333

$$$$
