
     RDKit          3D

 23 24  0  0  0  0  0  0  0  0999 V2000
   45.4630   35.4070   43.7800 C   0  0  0  0  0  0  0  0  0  0  0  0
   46.4070   34.3610   43.8260 C   0  0  0  0  0  0  0  0  0  0  0  0
   46.4170   33.5410   44.9860 C   0  0  0  0  0  0  0  0  0  0  0  0
   45.5150   33.8210   45.9720 N   0  0  0  0  0  0  0  0  0  0  0  0
   44.6420   34.8330   45.8680 C   0  0  0  0  0  0  0  0  0  0  0  0
   44.6070   35.6300   44.7790 N   0  0  0  0  0  0  0  0  0  0  0  0
   47.3020   34.1640   42.7300 N   0  0  0  0  0  0  0  0  0  0  0  0
   47.0760   33.5000   41.4440 C   0  0  0  0  0  0  0  0  0  0  0  0
   47.6810   34.4680   40.4380 C   0  0  0  0  0  0  0  0  0  0  0  0
   48.6030   35.3540   41.2500 C   0  0  0  0  0  0  0  0  0  0  0  0
   48.7050   34.5500   42.5360 C   0  0  0  0  0  0  0  0  0  0  0  0
   45.4640   36.1900   42.6580 O   0  0  0  0  0  0  0  0  0  0  0  0
   47.1281   32.7078   45.0865 H   0  0  0  0  0  0  0  0  0  0  0  0
   43.9362   35.0187   46.6910 H   0  0  0  0  0  0  0  0  0  0  0  0
   47.5856   32.5258   41.4088 H   0  0  0  0  0  0  0  0  0  0  0  0
   46.0143   33.2868   41.2508 H   0  0  0  0  0  0  0  0  0  0  0  0
   46.8940   35.0673   39.9570 H   0  0  0  0  0  0  0  0  0  0  0  0
   48.2160   33.9445   39.6320 H   0  0  0  0  0  0  0  0  0  0  0  0
   49.5838   35.4703   40.7657 H   0  0  0  0  0  0  0  0  0  0  0  0
   48.2448   36.3855   41.3833 H   0  0  0  0  0  0  0  0  0  0  0  0
   49.3538   33.6702   42.4132 H   0  0  0  0  0  0  0  0  0  0  0  0
   49.1484   35.0966   43.3813 H   0  0  0  0  0  0  0  0  0  0  0  0
   44.8208   36.9381   42.5759 H   0  0  0  0  0  0  0  0  0  0  0  0
  1  2  2  0
  1  6  1  0
  2  3  1  0
  3  4  2  0
  5  4  1  0
  6  5  2  0
  7  2  1  0
  8  7  1  0
  9 10  1  0
  9  8  1  0
 10 11  1  0
 11  7  1  0
 12  1  1  0
  3 13  1  0
  5 14  1  0
  8 15  1  0
  8 16  1  0
  9 17  1  0
  9 18  1  0
 10 19  1  0
 10 20  1  0
 11 21  1  0
 11 22  1  0
 12 23  1  0
M  ISO  8  13  14  14  14  15  13  16  13  17  13  18  13  19  13  20  13
M  ISO  3  21  13  22  13  23   3
M  END
>  <minimizedAffinity>  (1) 
-4.13561869

>  <minimizedRMSD>  (1) 
2.02064753

$$$$
