
     RDKit          3D

 14 14  0  0  0  0  0  0  0  0999 V2000
   45.0460   35.4100   44.1790 C   0  0  0  0  0  0  0  0  0  0  0  0
   46.0450   34.7090   43.4840 C   0  0  0  0  0  0  0  0  0  0  0  0
   46.6730   33.6570   44.1660 C   0  0  0  0  0  0  0  0  0  0  0  0
   46.3020   33.3670   45.4290 N   0  0  0  0  0  0  0  0  0  0  0  0
   45.3410   34.0640   46.0550 C   0  0  0  0  0  0  0  0  0  0  0  0
   44.7200   35.0750   45.4340 N   0  0  0  0  0  0  0  0  0  0  0  0
   44.4320   36.4340   43.5210 O   0  0  0  0  0  0  0  0  0  0  0  0
   46.4300   35.0620   42.0800 C   0  0  0  0  0  0  0  0  0  0  0  0
   47.4636   33.0720   43.6733 H   0  0  0  0  0  0  0  0  0  0  0  0
   45.0612   33.8028   47.0863 H   0  0  0  0  0  0  0  0  0  0  0  0
   44.6970   36.6557   42.5932 H   0  0  0  0  0  0  0  0  0  0  0  0
   47.2407   35.8053   42.0980 H   0  0  0  0  0  0  0  0  0  0  0  0
   46.7730   34.1580   41.5555 H   0  0  0  0  0  0  0  0  0  0  0  0
   45.5590   35.4820   41.5555 H   0  0  0  0  0  0  0  0  0  0  0  0
  1  6  2  0
  2  3  2  0
  2  1  1  0
  3  4  1  0
  4  5  2  0
  6  5  1  0
  7  1  1  0
  8  2  1  0
  3  9  1  0
  5 10  1  0
  7 11  1  0
  8 12  1  0
  8 13  1  0
  8 14  1  0
M  ISO  6   9  14  10  14  11   3  12   8  13   8  14   8
M  END
>  <minimizedAffinity>  (1) 
-3.29761362

>  <minimizedRMSD>  (1) 
0.301672846

$$$$
