
     RDKit          3D

 21 22  0  0  0  0  0  0  0  0999 V2000
   46.0790   34.5830   43.4980 C   0  0  0  0  0  0  0  0  0  0  0  0
   46.1940   33.7210   44.5900 C   0  0  0  0  0  0  0  0  0  0  0  0
   45.4350   34.0370   45.7310 C   0  0  0  0  0  0  0  0  0  0  0  0
   44.6440   35.1400   45.7160 N   0  0  0  0  0  0  0  0  0  0  0  0
   44.5720   35.9370   44.6300 C   0  0  0  0  0  0  0  0  0  0  0  0
   45.2850   35.6670   43.5170 N   0  0  0  0  0  0  0  0  0  0  0  0
   47.0840   32.5460   44.5030 C   0  0  0  0  0  0  0  0  0  0  0  0
   46.4970   31.5820   43.6560 F   0  0  0  0  0  0  0  0  0  0  0  0
   48.2540   32.9230   43.9090 F   0  0  0  0  0  0  0  0  0  0  0  0
   47.3270   31.9280   45.6990 F   0  0  0  0  0  0  0  0  0  0  0  0
   46.8110   34.2880   42.3870 O   0  0  0  0  0  0  0  0  0  0  0  0
   47.4160   35.2270   41.5390 C   0  0  0  0  0  0  0  0  0  0  0  0
   48.3080   34.7110   40.4710 C   0  0  0  0  0  0  0  0  0  0  0  0
   48.8810   35.4320   41.6840 C   0  0  0  0  0  0  0  0  0  0  0  0
   45.4818   33.3979   46.6250 H   0  0  0  0  0  0  0  0  0  0  0  0
   43.9203   36.8229   44.6524 H   0  0  0  0  0  0  0  0  0  0  0  0
   46.5408   35.8932   41.5522 H   0  0  0  0  0  0  0  0  0  0  0  0
   48.4568   33.6277   40.3514 H   0  0  0  0  0  0  0  0  0  0  0  0
   48.3774   34.8379   39.3805 H   0  0  0  0  0  0  0  0  0  0  0  0
   49.3114   36.4385   41.5761 H   0  0  0  0  0  0  0  0  0  0  0  0
   49.6325   35.1969   42.4521 H   0  0  0  0  0  0  0  0  0  0  0  0
  1  6  1  0
  1  2  2  0
  2  3  1  0
  4  3  2  0
  5  4  1  0
  6  5  2  0
  7  2  1  0
  7 10  1  0
  8  7  1  0
  9  7  1  0
 11  1  1  0
 12 14  1  0
 12 11  1  0
 13 12  1  0
 13 14  1  0
  3 15  1  0
  5 16  1  0
 12 17  1  0
 13 18  1  0
 13 19  1  0
 14 20  1  0
 14 21  1  0
M  ISO  7  15  14  16  14  17  13  18  13  19  13  20  13  21  13
M  END
>  <minimizedAffinity>  (1) 
-4.31127262

>  <minimizedRMSD>  (1) 
4.73510885

$$$$
