
     RDKit          3D

 30 32  0  0  0  0  0  0  0  0999 V2000
   46.8040   34.1460   43.3450 C   0  0  0  0  0  0  0  0  0  0  0  0
   45.7630   34.7900   44.0190 C   0  0  0  0  0  0  0  0  0  0  0  0
   45.2900   34.2110   45.2020 C   0  0  0  0  0  0  0  0  0  0  0  0
   45.8590   33.0620   45.6320 N   0  0  0  0  0  0  0  0  0  0  0  0
   46.8640   32.4700   44.9530 C   0  0  0  0  0  0  0  0  0  0  0  0
   47.3380   33.0070   43.8100 N   0  0  0  0  0  0  0  0  0  0  0  0
   48.0350   30.3590   44.5030 C   0  0  0  0  0  0  0  0  0  0  0  0
   47.4710   31.2200   45.4380 C   0  0  0  0  0  0  0  0  0  0  0  0
   47.4800   30.9090   46.7820 C   0  0  0  0  0  0  0  0  0  0  0  0
   48.0600   29.7240   47.2040 C   0  0  0  0  0  0  0  0  0  0  0  0
   48.2560   29.0950   48.3990 N   0  0  0  0  0  0  0  0  0  0  0  0
   48.8870   27.9470   48.2130 N   0  0  0  0  0  0  0  0  0  0  0  0
   49.1440   27.7460   46.9070 C   0  0  0  0  0  0  0  0  0  0  0  0
   48.6290   28.8560   46.2700 C   0  0  0  0  0  0  0  0  0  0  0  0
   48.6190   29.1660   44.9260 C   0  0  0  0  0  0  0  0  0  0  0  0
   45.2060   36.0450   43.4640 C   0  0  0  0  0  0  0  0  0  0  0  0
   46.2240   36.7880   42.8670 F   0  0  0  0  0  0  0  0  0  0  0  0
   44.3260   35.7220   42.4580 F   0  0  0  0  0  0  0  0  0  0  0  0
   44.5890   36.8400   44.3720 F   0  0  0  0  0  0  0  0  0  0  0  0
   47.2540   34.7080   42.2100 O   0  0  0  0  0  0  0  0  0  0  0  0
   48.5890   34.8520   41.7830 C   0  0  0  0  0  0  0  0  0  0  0  0
   49.3480   35.1750   42.9090 F   0  0  0  0  0  0  0  0  0  0  0  0
   49.0020   33.6890   41.1940 F   0  0  0  0  0  0  0  0  0  0  0  0
   48.7150   35.9380   40.9480 F   0  0  0  0  0  0  0  0  0  0  0  0
   44.4731   34.6803   45.7698 H   0  0  0  0  0  0  0  0  0  0  0  0
   48.0204   30.6182   43.4341 H   0  0  0  0  0  0  0  0  0  0  0  0
   47.0300   31.5968   47.5130 H   0  0  0  0  0  0  0  0  0  0  0  0
   47.9560   29.4611   49.3138 H   0  0  0  0  0  0  0  0  0  0  0  0
   49.6530   26.8854   46.4483 H   0  0  0  0  0  0  0  0  0  0  0  0
   49.0679   28.4780   44.1945 H   0  0  0  0  0  0  0  0  0  0  0  0
  1  6  2  0
  1  2  1  0
  2  3  2  0
  3  4  1  0
  5  8  1  0
  5  4  2  0
  6  5  1  0
  7 15  2  0
  7  8  1  0
  8  9  2  0
  9 10  1  0
 10 11  1  0
 12 11  1  0
 13 12  2  0
 14 13  1  0
 14 10  2  0
 15 14  1  0
 16  2  1  0
 16 19  1  0
 17 16  1  0
 18 16  1  0
 20  1  1  0
 21 20  1  0
 21 22  1  0
 23 21  1  0
 24 21  1  0
  3 25  1  0
  7 26  1  0
  9 27  1  0
 11 28  1  0
 13 29  1  0
 15 30  1  0
M  ISO  6  25  14  26  14  27  14  28   9  29  14  30  14
M  END
>  <minimizedAffinity>  (1) 
-5.56124258

>  <minimizedRMSD>  (1) 
0.963080525

$$$$
