
     RDKit          3D

 19 19  0  0  0  0  0  0  0  0999 V2000
   47.0200   34.2190   43.0620 C   0  0  0  0  0  0  0  0  0  0  0  0
   45.8570   34.6350   43.6950 C   0  0  0  0  0  0  0  0  0  0  0  0
   45.3400   33.8580   44.7390 C   0  0  0  0  0  0  0  0  0  0  0  0
   46.0040   32.7250   45.0870 N   0  0  0  0  0  0  0  0  0  0  0  0
   47.1310   32.3490   44.4510 C   0  0  0  0  0  0  0  0  0  0  0  0
   47.6480   33.0790   43.4440 N   0  0  0  0  0  0  0  0  0  0  0  0
   47.7650   31.1380   44.8860 N   0  0  0  0  0  0  0  0  0  0  0  0
   45.2010   35.8990   43.2360 C   0  0  0  0  0  0  0  0  0  0  0  0
   46.1480   36.8870   43.0560 F   0  0  0  0  0  0  0  0  0  0  0  0
   44.6330   35.6520   41.9920 F   0  0  0  0  0  0  0  0  0  0  0  0
   44.2500   36.3720   44.0840 F   0  0  0  0  0  0  0  0  0  0  0  0
   47.5070   34.9750   42.0580 O   0  0  0  0  0  0  0  0  0  0  0  0
   48.8400   35.0940   41.6490 C   0  0  0  0  0  0  0  0  0  0  0  0
   49.5880   35.3970   42.8010 F   0  0  0  0  0  0  0  0  0  0  0  0
   49.2420   33.9510   41.0320 F   0  0  0  0  0  0  0  0  0  0  0  0
   48.9850   36.2060   40.8380 F   0  0  0  0  0  0  0  0  0  0  0  0
   44.4205   34.1571   45.2635 H   0  0  0  0  0  0  0  0  0  0  0  0
   48.6284   30.8149   44.4265 H   0  0  0  0  0  0  0  0  0  0  0  0
   47.3569   30.5915   45.6578 H   0  0  0  0  0  0  0  0  0  0  0  0
  1  6  2  0
  1  2  1  0
  2  3  2  0
  3  4  1  0
  5  7  1  0
  5  4  2  0
  6  5  1  0
  8  2  1  0
  8 11  1  0
  9  8  1  0
 10  8  1  0
 12  1  1  0
 13 12  1  0
 13 14  1  0
 15 13  1  0
 16 13  1  0
  3 17  1  0
  7 18  1  0
  7 19  1  0
M  ISO  1  17  14
M  END
>  <minimizedAffinity>  (1) 
-4.60918379

>  <minimizedRMSD>  (1) 
0.438810676

$$$$
