
     RDKit          3D

 18 18  0  0  0  0  0  0  0  0999 V2000
   47.0440   34.2270   43.0840 C   0  0  0  0  0  0  0  0  0  0  0  0
   45.8590   34.6360   43.6880 C   0  0  0  0  0  0  0  0  0  0  0  0
   45.3460   33.8360   44.7360 C   0  0  0  0  0  0  0  0  0  0  0  0
   46.0260   32.7300   45.0900 N   0  0  0  0  0  0  0  0  0  0  0  0
   47.1780   32.3740   44.4690 C   0  0  0  0  0  0  0  0  0  0  0  0
   47.6800   33.1180   43.4740 N   0  0  0  0  0  0  0  0  0  0  0  0
   45.1770   35.8710   43.2330 C   0  0  0  0  0  0  0  0  0  0  0  0
   46.1170   36.8910   43.0740 F   0  0  0  0  0  0  0  0  0  0  0  0
   44.6440   35.6330   41.9780 F   0  0  0  0  0  0  0  0  0  0  0  0
   44.2050   36.3360   44.0600 F   0  0  0  0  0  0  0  0  0  0  0  0
   47.7630   31.2070   44.9450 O   0  0  0  0  0  0  0  0  0  0  0  0
   47.5230   34.9990   42.0840 O   0  0  0  0  0  0  0  0  0  0  0  0
   48.8490   35.1100   41.6470 C   0  0  0  0  0  0  0  0  0  0  0  0
   49.6150   35.4130   42.7840 F   0  0  0  0  0  0  0  0  0  0  0  0
   49.2520   33.9530   41.0510 F   0  0  0  0  0  0  0  0  0  0  0  0
   48.9940   36.2140   40.8180 F   0  0  0  0  0  0  0  0  0  0  0  0
   44.4131   34.1116   45.2495 H   0  0  0  0  0  0  0  0  0  0  0  0
   48.6067   30.8775   44.5453 H   0  0  0  0  0  0  0  0  0  0  0  0
  1  6  2  0
  1  2  1  0
  2  3  2  0
  3  4  1  0
  5 11  1  0
  5  4  2  0
  6  5  1  0
  7  2  1  0
  7 10  1  0
  8  7  1  0
  9  7  1  0
 12  1  1  0
 13 12  1  0
 13 14  1  0
 15 13  1  0
 16 13  1  0
  3 17  1  0
 11 18  1  0
M  ISO  2  17  14  18   3
M  END
>  <minimizedAffinity>  (1) 
-4.65849924

>  <minimizedRMSD>  (1) 
0.410545141

$$$$
