
     RDKit          3D

 34 36  0  0  0  0  0  0  0  0999 V2000
   47.3330   29.9290   44.9940 F   0  0  0  0  0  0  0  0  0  0  0  0
   47.3270   30.7470   46.0960 C   0  0  0  0  0  0  0  0  0  0  0  0
   46.8820   32.0410   45.9770 C   0  0  0  0  0  0  0  0  0  0  0  0
   46.9110   32.8000   47.1480 C   0  0  0  0  0  0  0  0  0  0  0  0
   47.3580   32.2780   48.3380 C   0  0  0  0  0  0  0  0  0  0  0  0
   47.7920   30.9630   48.3770 C   0  0  0  0  0  0  0  0  0  0  0  0
   47.7890   30.1570   47.2550 C   0  0  0  0  0  0  0  0  0  0  0  0
   48.2440   28.7710   47.2880 C   0  0  0  0  0  0  0  0  0  0  0  0
   49.5510   28.3930   47.0550 C   0  0  0  0  0  0  0  0  0  0  0  0
   49.4990   27.0060   47.1910 C   0  0  0  0  0  0  0  0  0  0  0  0
   48.2000   26.6260   47.4890 C   0  0  0  0  0  0  0  0  0  0  0  0
   47.5020   27.7440   47.5310 O   0  0  0  0  0  0  0  0  0  0  0  0
   46.7430   34.1220   42.9990 C   0  0  0  0  0  0  0  0  0  0  0  0
   45.5960   33.6910   42.3280 C   0  0  0  0  0  0  0  0  0  0  0  0
   44.8620   32.6540   42.9320 C   0  0  0  0  0  0  0  0  0  0  0  0
   45.2850   32.1280   44.1110 N   0  0  0  0  0  0  0  0  0  0  0  0
   46.4070   32.5910   44.7120 C   0  0  0  0  0  0  0  0  0  0  0  0
   47.1340   33.5860   44.1570 N   0  0  0  0  0  0  0  0  0  0  0  0
   45.2060   34.3160   41.0500 C   0  0  0  0  0  0  0  0  0  0  0  0
   44.9300   35.6500   41.2470 F   0  0  0  0  0  0  0  0  0  0  0  0
   46.2960   34.2460   40.1920 F   0  0  0  0  0  0  0  0  0  0  0  0
   44.1430   33.7420   40.4420 F   0  0  0  0  0  0  0  0  0  0  0  0
   47.4520   35.1270   42.4130 O   0  0  0  0  0  0  0  0  0  0  0  0
   48.7730   35.0440   41.9150 C   0  0  0  0  0  0  0  0  0  0  0  0
   49.6200   35.2900   43.0000 F   0  0  0  0  0  0  0  0  0  0  0  0
   48.9900   33.8250   41.3310 F   0  0  0  0  0  0  0  0  0  0  0  0
   49.0120   36.0910   41.0540 F   0  0  0  0  0  0  0  0  0  0  0  0
   46.5667   33.8443   47.1175 H   0  0  0  0  0  0  0  0  0  0  0  0
   47.3710   32.8963   49.2477 H   0  0  0  0  0  0  0  0  0  0  0  0
   48.1500   30.5478   49.3307 H   0  0  0  0  0  0  0  0  0  0  0  0
   50.4181   29.0280   46.8204 H   0  0  0  0  0  0  0  0  0  0  0  0
   50.3534   26.3222   47.0794 H   0  0  0  0  0  0  0  0  0  0  0  0
   47.8284   25.6042   47.6558 H   0  0  0  0  0  0  0  0  0  0  0  0
   43.9496   32.2707   42.4518 H   0  0  0  0  0  0  0  0  0  0  0  0
  1  2  1  0
  2  7  2  0
  3  2  1  0
  3  4  2  0
  4  5  1  0
  5  6  2  0
  7  8  1  0
  7  6  1  0
  8 12  1  0
  9 10  1  0
  9  8  2  0
 10 11  2  0
 11 12  1  0
 13 18  2  0
 14 15  2  0
 14 13  1  0
 15 16  1  0
 16 17  2  0
 17  3  1  0
 18 17  1  0
 19 20  1  0
 19 14  1  0
 21 19  1  0
 22 19  1  0
 23 13  1  0
 24 23  1  0
 24 25  1  0
 26 24  1  0
 27 24  1  0
  4 28  1  0
  5 29  1  0
  6 30  1  0
  9 31  1  0
 10 32  1  0
 11 33  1  0
 15 34  1  0
M  ISO  7  28  14  29  14  30  14  31  14  32  14  33  14  34  14
M  END
>  <minimizedAffinity>  (1) 
-5.53211975

>  <minimizedRMSD>  (1) 
0.547713518

$$$$
