
     RDKit          3D

 40 42  0  0  0  0  0  0  0  0999 V2000
   47.6120   30.0110   44.9230 F   0  0  0  0  0  0  0  0  0  0  0  0
   47.4930   30.7790   46.0490 C   0  0  0  0  0  0  0  0  0  0  0  0
   46.9370   32.0320   45.9650 C   0  0  0  0  0  0  0  0  0  0  0  0
   46.8510   32.7490   47.1580 C   0  0  0  0  0  0  0  0  0  0  0  0
   47.3040   32.2120   48.3400 C   0  0  0  0  0  0  0  0  0  0  0  0
   47.8600   30.9320   48.3620 C   0  0  0  0  0  0  0  0  0  0  0  0
   47.9660   30.1760   47.1820 C   0  0  0  0  0  0  0  0  0  0  0  0
   46.8010   34.1210   42.9700 C   0  0  0  0  0  0  0  0  0  0  0  0
   45.6660   33.6690   42.3020 C   0  0  0  0  0  0  0  0  0  0  0  0
   44.9380   32.6230   42.9020 C   0  0  0  0  0  0  0  0  0  0  0  0
   45.3530   32.1030   44.0780 N   0  0  0  0  0  0  0  0  0  0  0  0
   46.4630   32.5770   44.6880 C   0  0  0  0  0  0  0  0  0  0  0  0
   47.1750   33.5710   44.1390 N   0  0  0  0  0  0  0  0  0  0  0  0
   45.2840   34.2910   41.0260 C   0  0  0  0  0  0  0  0  0  0  0  0
   44.9430   35.6170   41.2260 F   0  0  0  0  0  0  0  0  0  0  0  0
   46.3840   34.2590   40.1800 F   0  0  0  0  0  0  0  0  0  0  0  0
   44.2480   33.6920   40.3870 F   0  0  0  0  0  0  0  0  0  0  0  0
   47.5030   35.1220   42.4010 O   0  0  0  0  0  0  0  0  0  0  0  0
   48.8340   35.0640   41.9140 C   0  0  0  0  0  0  0  0  0  0  0  0
   49.6740   35.3280   42.9920 F   0  0  0  0  0  0  0  0  0  0  0  0
   49.0520   33.8530   41.3320 F   0  0  0  0  0  0  0  0  0  0  0  0
   49.0430   36.1190   41.0460 F   0  0  0  0  0  0  0  0  0  0  0  0
   48.5580   28.8190   47.2190 C   0  0  0  0  0  0  0  0  0  0  0  0
   49.8790   28.7390   47.8350 C   0  0  0  0  0  0  0  0  0  0  0  0
   51.0730   29.3110   47.4560 C   0  0  0  0  0  0  0  0  0  0  0  0
   52.2500   29.1460   48.1440 C   0  0  0  0  0  0  0  0  0  0  0  0
   52.2730   28.3690   49.2880 C   0  0  0  0  0  0  0  0  0  0  0  0
   51.0960   27.7660   49.7180 C   0  0  0  0  0  0  0  0  0  0  0  0
   49.9260   27.9560   48.9970 C   0  0  0  0  0  0  0  0  0  0  0  0
   46.4145   33.7587   47.1534 H   0  0  0  0  0  0  0  0  0  0  0  0
   47.2280   32.7929   49.2710 H   0  0  0  0  0  0  0  0  0  0  0  0
   48.2189   30.5106   49.3126 H   0  0  0  0  0  0  0  0  0  0  0  0
   44.0336   32.2304   42.4142 H   0  0  0  0  0  0  0  0  0  0  0  0
   47.8777   28.1652   47.7844 H   0  0  0  0  0  0  0  0  0  0  0  0
   48.6883   28.5117   46.1709 H   0  0  0  0  0  0  0  0  0  0  0  0
   51.0846   29.9356   46.5506 H   0  0  0  0  0  0  0  0  0  0  0  0
   53.1709   29.6299   47.7866 H   0  0  0  0  0  0  0  0  0  0  0  0
   53.2086   28.2301   49.8495 H   0  0  0  0  0  0  0  0  0  0  0  0
   51.0926   27.1423   50.6241 H   0  0  0  0  0  0  0  0  0  0  0  0
   49.0018   27.4749   49.3498 H   0  0  0  0  0  0  0  0  0  0  0  0
  1  2  1  0
  2  7  2  0
  3  2  1  0
  3  4  2  0
  4  5  1  0
  5  6  2  0
  7 23  1  0
  7  6  1  0
  8 13  2  0
  9 10  2  0
  9  8  1  0
 10 11  1  0
 11 12  2  0
 12  3  1  0
 13 12  1  0
 14 15  1  0
 14  9  1  0
 16 14  1  0
 17 14  1  0
 18  8  1  0
 19 18  1  0
 19 20  1  0
 21 19  1  0
 22 19  1  0
 23 24  1  0
 24 29  1  0
 25 24  2  0
 25 26  1  0
 26 27  2  0
 27 28  1  0
 29 28  2  0
  4 30  1  0
  5 31  1  0
  6 32  1  0
 10 33  1  0
 23 34  1  0
 23 35  1  0
 25 36  1  0
 26 37  1  0
 27 38  1  0
 28 39  1  0
 29 40  1  0
M  ISO  8  30  14  31  14  32  14  33  14  34   8  35   8  36  14  37  14
M  ISO  3  38  14  39  14  40  14
M  END
>  <minimizedAffinity>  (1) 
-5.68820763

>  <minimizedRMSD>  (1) 
1.27461982

$$$$
