
     RDKit          3D

 45 47  0  0  0  0  0  0  0  0999 V2000
   47.6520   29.9240   44.8400 F   0  0  0  0  0  0  0  0  0  0  0  0
   47.5640   30.6680   46.0080 C   0  0  0  0  0  0  0  0  0  0  0  0
   47.0110   31.9240   45.9790 C   0  0  0  0  0  0  0  0  0  0  0  0
   46.9660   32.5920   47.1960 C   0  0  0  0  0  0  0  0  0  0  0  0
   47.4520   32.0090   48.3480 C   0  0  0  0  0  0  0  0  0  0  0  0
   47.9980   30.7420   48.3180 C   0  0  0  0  0  0  0  0  0  0  0  0
   48.0700   30.0240   47.1250 C   0  0  0  0  0  0  0  0  0  0  0  0
   46.8160   34.1070   43.0660 C   0  0  0  0  0  0  0  0  0  0  0  0
   45.6480   33.6950   42.4190 C   0  0  0  0  0  0  0  0  0  0  0  0
   44.9270   32.6450   43.0110 C   0  0  0  0  0  0  0  0  0  0  0  0
   45.3750   32.0840   44.1560 N   0  0  0  0  0  0  0  0  0  0  0  0
   46.5070   32.5120   44.7460 C   0  0  0  0  0  0  0  0  0  0  0  0
   47.2150   33.5150   44.2000 N   0  0  0  0  0  0  0  0  0  0  0  0
   45.2300   34.3560   41.1790 C   0  0  0  0  0  0  0  0  0  0  0  0
   44.9420   35.6980   41.4210 F   0  0  0  0  0  0  0  0  0  0  0  0
   46.3070   34.3380   40.2940 F   0  0  0  0  0  0  0  0  0  0  0  0
   44.1660   33.8180   40.5610 F   0  0  0  0  0  0  0  0  0  0  0  0
   47.5180   35.1190   42.5020 O   0  0  0  0  0  0  0  0  0  0  0  0
   48.8320   35.0530   41.9710 C   0  0  0  0  0  0  0  0  0  0  0  0
   49.7110   35.2790   43.0090 F   0  0  0  0  0  0  0  0  0  0  0  0
   49.0230   33.8400   41.3680 F   0  0  0  0  0  0  0  0  0  0  0  0
   49.0300   36.1030   41.1010 F   0  0  0  0  0  0  0  0  0  0  0  0
   48.6560   28.6490   47.0490 C   0  0  0  0  0  0  0  0  0  0  0  0
   49.8610   28.4930   47.7790 N   0  0  0  0  0  0  0  0  0  0  0  0
   50.9680   29.2750   47.4210 C   0  0  0  0  0  0  0  0  0  0  0  0
   51.8660   29.7470   48.5330 C   0  0  0  0  0  0  0  0  0  0  0  0
   52.0300   28.6130   49.5500 C   0  0  0  0  0  0  0  0  0  0  0  0
   50.6200   28.4260   50.1260 C   0  0  0  0  0  0  0  0  0  0  0  0
   49.8310   27.8030   48.9990 C   0  0  0  0  0  0  0  0  0  0  0  0
   46.5355   33.6032   47.2420 H   0  0  0  0  0  0  0  0  0  0  0  0
   47.4038   32.5592   49.2993 H   0  0  0  0  0  0  0  0  0  0  0  0
   48.3810   30.2932   49.2464 H   0  0  0  0  0  0  0  0  0  0  0  0
   44.0002   32.2803   42.5440 H   0  0  0  0  0  0  0  0  0  0  0  0
   47.9175   27.9362   47.4447 H   0  0  0  0  0  0  0  0  0  0  0  0
   48.8991   28.4654   45.9920 H   0  0  0  0  0  0  0  0  0  0  0  0
   51.5828   28.6808   46.7289 H   0  0  0  0  0  0  0  0  0  0  0  0
   50.5396   30.1936   46.9936 H   0  0  0  0  0  0  0  0  0  0  0  0
   52.8493   30.0211   48.1231 H   0  0  0  0  0  0  0  0  0  0  0  0
   51.4237   30.6271   49.0226 H   0  0  0  0  0  0  0  0  0  0  0  0
   52.3766   27.6926   49.0572 H   0  0  0  0  0  0  0  0  0  0  0  0
   52.7771   28.8425   50.3240 H   0  0  0  0  0  0  0  0  0  0  0  0
   50.6424   27.7588   51.0002 H   0  0  0  0  0  0  0  0  0  0  0  0
   50.1800   29.3733   50.4711 H   0  0  0  0  0  0  0  0  0  0  0  0
   48.7815   27.7319   49.3208 H   0  0  0  0  0  0  0  0  0  0  0  0
   50.3060   26.8302   48.8038 H   0  0  0  0  0  0  0  0  0  0  0  0
  1  2  1  0
  2  7  2  0
  3  2  1  0
  3  4  2  0
  4  5  1  0
  6  5  2  0
  7  6  1  0
  8 13  2  0
  9 10  2  0
  9  8  1  0
 10 11  1  0
 11 12  2  0
 12  3  1  0
 13 12  1  0
 14 15  1  0
 14  9  1  0
 16 14  1  0
 17 14  1  0
 18  8  1  0
 19 18  1  0
 19 20  1  0
 21 19  1  0
 22 19  1  0
 23  7  1  0
 23 24  1  0
 24 29  1  0
 25 24  1  0
 25 26  1  0
 26 27  1  0
 27 28  1  0
 29 28  1  0
  4 30  1  0
  5 31  1  0
  6 32  1  0
 10 33  1  0
 23 34  1  0
 23 35  1  0
 25 36  1  0
 25 37  1  0
 26 38  1  0
 26 39  1  0
 27 40  1  0
 27 41  1  0
 28 42  1  0
 28 43  1  0
 29 44  1  0
 29 45  1  0
M  ISO  8  30  14  31  14  32  14  33  14  34   8  35   8  36  13  37  13
M  ISO  8  38  13  39  13  40  13  41  13  42  13  43  13  44  13  45  13
M  END
>  <minimizedAffinity>  (1) 
-5.70926476

>  <minimizedRMSD>  (1) 
1.24605453

$$$$
