
     RDKit          3D

 36 37  0  0  0  0  0  0  0  0999 V2000
   47.7670   30.0800   44.9200 F   0  0  0  0  0  0  0  0  0  0  0  0
   47.5710   30.8400   46.0560 C   0  0  0  0  0  0  0  0  0  0  0  0
   46.9400   32.0660   45.9670 C   0  0  0  0  0  0  0  0  0  0  0  0
   46.7870   32.7560   47.1520 C   0  0  0  0  0  0  0  0  0  0  0  0
   47.2380   32.2490   48.3430 C   0  0  0  0  0  0  0  0  0  0  0  0
   47.8630   31.0180   48.3830 C   0  0  0  0  0  0  0  0  0  0  0  0
   48.0510   30.2630   47.2150 C   0  0  0  0  0  0  0  0  0  0  0  0
   46.7820   34.1230   42.9500 C   0  0  0  0  0  0  0  0  0  0  0  0
   45.6540   33.6500   42.2910 C   0  0  0  0  0  0  0  0  0  0  0  0
   44.9410   32.6050   42.9030 C   0  0  0  0  0  0  0  0  0  0  0  0
   45.3640   32.1040   44.0840 N   0  0  0  0  0  0  0  0  0  0  0  0
   46.4650   32.5930   44.6890 C   0  0  0  0  0  0  0  0  0  0  0  0
   47.1700   33.5960   44.1270 N   0  0  0  0  0  0  0  0  0  0  0  0
   45.2520   34.2430   41.0060 C   0  0  0  0  0  0  0  0  0  0  0  0
   44.9320   35.5730   41.1750 F   0  0  0  0  0  0  0  0  0  0  0  0
   46.3710   34.2070   40.1580 F   0  0  0  0  0  0  0  0  0  0  0  0
   44.2240   33.6320   40.3730 F   0  0  0  0  0  0  0  0  0  0  0  0
   47.4720   35.1250   42.3710 O   0  0  0  0  0  0  0  0  0  0  0  0
   48.8010   35.0800   41.8970 C   0  0  0  0  0  0  0  0  0  0  0  0
   49.6390   35.3330   42.9750 F   0  0  0  0  0  0  0  0  0  0  0  0
   49.0470   33.8690   41.3170 F   0  0  0  0  0  0  0  0  0  0  0  0
   49.0170   36.1300   41.0310 F   0  0  0  0  0  0  0  0  0  0  0  0
   48.7210   28.9280   47.2090 C   0  0  0  0  0  0  0  0  0  0  0  0
   49.9940   29.0370   47.7190 O   0  0  0  0  0  0  0  0  0  0  0  0
   50.1920   28.8120   50.3690 O   0  0  0  0  0  0  0  0  0  0  0  0
   50.2080   28.0390   49.0640 P   0  0  0  0  0  0  0  0  0  0  0  0
   51.7300   27.2930   48.8680 O   0  0  0  0  0  0  0  0  0  0  0  0
   49.0450   26.8140   49.1580 O   0  0  0  0  0  0  0  0  0  0  0  0
   46.2906   33.7376   47.1407 H   0  0  0  0  0  0  0  0  0  0  0  0
   47.1016   32.8247   49.2704 H   0  0  0  0  0  0  0  0  0  0  0  0
   48.2192   30.6230   49.3459 H   0  0  0  0  0  0  0  0  0  0  0  0
   44.0406   32.1960   42.4214 H   0  0  0  0  0  0  0  0  0  0  0  0
   48.1404   28.2265   47.8261 H   0  0  0  0  0  0  0  0  0  0  0  0
   48.7774   28.5575   46.1748 H   0  0  0  0  0  0  0  0  0  0  0  0
   52.1206   27.1015   49.7573 H   0  0  0  0  0  0  0  0  0  0  0  0
   48.8539   26.6127   50.1083 H   0  0  0  0  0  0  0  0  0  0  0  0
  1  2  1  0
  2  7  2  0
  3  2  1  0
  3  4  2  0
  4  5  1  0
  5  6  2  0
  7  6  1  0
  8 13  2  0
  9 10  2  0
  9  8  1  0
 10 11  1  0
 11 12  2  0
 12  3  1  0
 13 12  1  0
 14 15  1  0
 14  9  1  0
 16 14  1  0
 17 14  1  0
 18  8  1  0
 19 18  1  0
 19 20  1  0
 21 19  1  0
 22 19  1  0
 23  7  1  0
 23 24  1  0
 24 26  1  0
 26 28  1  0
 26 25  2  0
 27 26  1  0
  4 29  1  0
  5 30  1  0
  6 31  1  0
 10 32  1  0
 23 33  1  0
 23 34  1  0
 27 35  1  0
 28 36  1  0
M  ISO  8  29  14  30  14  31  14  32  14  33   8  34   8  35   3  36   3
M  END
>  <minimizedAffinity>  (1) 
-5.52370739

>  <minimizedRMSD>  (1) 
1.03762853

$$$$
