
     RDKit          3D

 32 33  0  0  0  0  0  0  0  0999 V2000
   46.8110   34.1190   43.0410 C   0  0  0  0  0  0  0  0  0  0  0  0
   45.6390   33.7220   42.4210 C   0  0  0  0  0  0  0  0  0  0  0  0
   44.9140   32.6760   43.0270 C   0  0  0  0  0  0  0  0  0  0  0  0
   45.3830   32.1170   44.1620 N   0  0  0  0  0  0  0  0  0  0  0  0
   46.5280   32.5360   44.7300 C   0  0  0  0  0  0  0  0  0  0  0  0
   47.2360   33.5290   44.1720 N   0  0  0  0  0  0  0  0  0  0  0  0
   47.7440   29.9800   44.8020 F   0  0  0  0  0  0  0  0  0  0  0  0
   47.6330   30.6930   45.9740 C   0  0  0  0  0  0  0  0  0  0  0  0
   47.0440   31.9370   45.9590 C   0  0  0  0  0  0  0  0  0  0  0  0
   46.9770   32.5790   47.1830 C   0  0  0  0  0  0  0  0  0  0  0  0
   47.4590   32.0240   48.3350 C   0  0  0  0  0  0  0  0  0  0  0  0
   48.0440   30.7630   48.2940 C   0  0  0  0  0  0  0  0  0  0  0  0
   48.1390   30.0650   47.0790 C   0  0  0  0  0  0  0  0  0  0  0  0
   48.7620   28.7040   47.0070 C   0  0  0  0  0  0  0  0  0  0  0  0
   50.1520   28.7280   46.6740 N   0  0  0  0  0  0  0  0  0  0  0  0
   45.1970   34.3790   41.1940 C   0  0  0  0  0  0  0  0  0  0  0  0
   44.9050   35.7160   41.4440 F   0  0  0  0  0  0  0  0  0  0  0  0
   46.2760   34.3820   40.3010 F   0  0  0  0  0  0  0  0  0  0  0  0
   44.1350   33.8200   40.5760 F   0  0  0  0  0  0  0  0  0  0  0  0
   47.5140   35.1240   42.4670 O   0  0  0  0  0  0  0  0  0  0  0  0
   48.8230   35.0670   41.9440 C   0  0  0  0  0  0  0  0  0  0  0  0
   49.7030   35.2930   42.9960 F   0  0  0  0  0  0  0  0  0  0  0  0
   49.0070   33.8520   41.3360 F   0  0  0  0  0  0  0  0  0  0  0  0
   49.0230   36.1190   41.0760 F   0  0  0  0  0  0  0  0  0  0  0  0
   43.9750   32.3189   42.5790 H   0  0  0  0  0  0  0  0  0  0  0  0
   46.5169   33.5770   47.2306 H   0  0  0  0  0  0  0  0  0  0  0  0
   47.3849   32.5702   49.2869 H   0  0  0  0  0  0  0  0  0  0  0  0
   48.4341   30.3102   49.2175 H   0  0  0  0  0  0  0  0  0  0  0  0
   48.6474   28.2168   47.9865 H   0  0  0  0  0  0  0  0  0  0  0  0
   48.2473   28.1556   46.2043 H   0  0  0  0  0  0  0  0  0  0  0  0
   50.7120   28.7377   47.5384 H   0  0  0  0  0  0  0  0  0  0  0  0
   50.3873   27.8909   46.1218 H   0  0  0  0  0  0  0  0  0  0  0  0
  1  6  2  0
  2  3  2  0
  2  1  1  0
  3  4  1  0
  4  5  2  0
  5  9  1  0
  6  5  1  0
  7  8  1  0
  8 13  2  0
  9  8  1  0
  9 10  2  0
 10 11  1  0
 12 11  2  0
 13 12  1  0
 14 13  1  0
 15 14  1  0
 16 17  1  0
 16  2  1  0
 18 16  1  0
 19 16  1  0
 20  1  1  0
 21 20  1  0
 21 22  1  0
 23 21  1  0
 24 21  1  0
  3 25  1  0
 10 26  1  0
 11 27  1  0
 12 28  1  0
 14 29  1  0
 14 30  1  0
 15 31  1  0
 15 32  1  0
M  ISO  8  25  14  26  14  27  14  28  14  29   8  30   8  31   5  32   5
M  END
>  <minimizedAffinity>  (1) 
-5.31571913

>  <minimizedRMSD>  (1) 
0.0675841123

$$$$
