
     RDKit          3D

 24 26  0  0  0  0  0  0  0  0999 V2000
   47.6990   33.4860   40.1280 C   0  0  0  0  0  0  0  0  0  0  0  0
   49.0440   33.2180   40.3810 C   0  0  0  0  0  0  0  0  0  0  0  0
   49.5110   33.3020   41.7150 C   0  0  0  0  0  0  0  0  0  0  0  0
   48.5960   33.6450   42.6700 N   0  0  0  0  0  0  0  0  0  0  0  0
   47.3050   33.8970   42.3820 C   0  0  0  0  0  0  0  0  0  0  0  0
   46.8560   33.8180   41.1190 N   0  0  0  0  0  0  0  0  0  0  0  0
   46.4200   34.2500   43.4490 N   0  0  0  0  0  0  0  0  0  0  0  0
   45.5070   35.2410   43.4410 C   0  0  0  0  0  0  0  0  0  0  0  0
   44.8730   35.2440   44.6470 N   0  0  0  0  0  0  0  0  0  0  0  0
   45.4120   34.2550   45.3640 C   0  0  0  0  0  0  0  0  0  0  0  0
   45.1960   33.7700   46.6360 C   0  0  0  0  0  0  0  0  0  0  0  0
   45.8750   32.7490   47.1400 N   0  0  0  0  0  0  0  0  0  0  0  0
   46.8330   32.1150   46.4320 C   0  0  0  0  0  0  0  0  0  0  0  0
   47.0450   32.5880   45.1910 N   0  0  0  0  0  0  0  0  0  0  0  0
   46.3910   33.6090   44.6360 C   0  0  0  0  0  0  0  0  0  0  0  0
   44.2190   34.3390   47.4940 N   0  0  0  0  0  0  0  0  0  0  0  0
   47.2120   33.3500   38.3990 S   0  0  0  0  0  0  0  0  0  0  0  0
   49.7270   32.9473   39.5623 H   0  0  0  0  0  0  0  0  0  0  0  0
   50.5617   33.1005   41.9707 H   0  0  0  0  0  0  0  0  0  0  0  0
   45.3080   35.9284   42.6056 H   0  0  0  0  0  0  0  0  0  0  0  0
   47.4024   31.2680   46.8424 H   0  0  0  0  0  0  0  0  0  0  0  0
   44.0787   33.9564   48.4399 H   0  0  0  0  0  0  0  0  0  0  0  0
   43.6503   35.1346   47.1707 H   0  0  0  0  0  0  0  0  0  0  0  0
   45.8945   32.9821   38.3232 H   0  0  0  0  0  0  0  0  0  0  0  0
  1  2  2  0
  1  6  1  0
  2  3  1  0
  3  4  2  0
  5  4  1  0
  5  7  1  0
  6  5  2  0
  7 15  1  0
  8  7  1  0
  8  9  2  0
  9 10  1  0
 10 11  2  0
 11 12  1  0
 11 16  1  0
 13 12  2  0
 14 13  1  0
 15 14  2  0
 15 10  1  0
 17  1  1  0
  2 18  1  0
  3 19  1  0
  8 20  1  0
 13 21  1  0
 16 22  1  0
 16 23  1  0
 17 24  1  0
M  ISO  5  18  14  19  14  20  14  21  14  24  11
M  END
>  <minimizedAffinity>  (1) 
-5.29098034

>  <minimizedRMSD>  (1) 
4.50398493

$$$$
