
     RDKit          3D

 35 39  0  0  1  0  0  0  0  0999 V2000
   45.7620   32.6850   38.1560 C   0  0  1  0  0  0  0  0  0  0  0  0
   46.5190   33.5580   37.6900 O   0  0  0  0  0  0  0  0  0  0  0  0
   46.9260   33.0350   38.9690 C   0  0  2  0  0  0  0  0  0  0  0  0
   47.8550   31.8370   39.1800 C   0  0  0  0  0  0  0  0  0  0  0  0
   47.3110   32.5740   40.2830 C   0  0  1  0  0  0  0  0  0  0  0  0
   48.2450   33.4620   41.0290 C   0  0  0  0  0  0  0  0  0  0  0  0
   49.2840   33.0500   41.8410 C   0  0  0  0  0  0  0  0  0  0  0  0
   50.1090   33.9040   42.5000 C   0  0  0  0  0  0  0  0  0  0  0  0
   49.8810   35.2500   42.3360 C   0  0  0  0  0  0  0  0  0  0  0  0
   48.8530   35.6930   41.5320 C   0  0  0  0  0  0  0  0  0  0  0  0
   48.0610   34.8070   40.8990 N   0  0  0  0  0  0  0  0  0  0  0  0
   43.2320   33.0550   38.5000 C   0  0  1  0  0  0  0  0  0  0  0  0
   44.3670   32.7530   37.6780 C   0  0  2  0  0  0  0  0  0  0  0  0
   43.5190   31.6630   38.2080 C   0  0  0  0  0  0  0  0  0  0  0  0
   43.3200   35.0200   39.9430 C   0  0  0  0  0  0  0  0  0  0  0  0
   43.4400   33.6430   39.8290 C   0  0  0  0  0  0  0  0  0  0  0  0
   43.6980   32.8540   40.9540 C   0  0  0  0  0  0  0  0  0  0  0  0
   43.8170   33.5270   42.1460 N   0  0  0  0  0  0  0  0  0  0  0  0
   43.6980   34.8630   42.2530 C   0  0  0  0  0  0  0  0  0  0  0  0
   43.4480   35.6080   41.1380 N   0  0  0  0  0  0  0  0  0  0  0  0
   45.3021   31.6960   38.2983 H   0  0  0  0  0  0  0  0  0  0  0  0
   47.5025   30.8171   38.9664 H   0  0  0  0  0  0  0  0  0  0  0  0
   48.8626   31.5521   38.8429 H   0  0  0  0  0  0  0  0  0  0  0  0
   46.7487   32.2690   41.1779 H   0  0  0  0  0  0  0  0  0  0  0  0
   49.4525   31.9696   41.9604 H   0  0  0  0  0  0  0  0  0  0  0  0
   50.9253   33.5345   43.1381 H   0  0  0  0  0  0  0  0  0  0  0  0
   50.5242   35.9790   42.8506 H   0  0  0  0  0  0  0  0  0  0  0  0
   48.6793   36.7720   41.4072 H   0  0  0  0  0  0  0  0  0  0  0  0
   42.3266   33.6709   38.3955 H   0  0  0  0  0  0  0  0  0  0  0  0
   44.6873   33.1895   36.7205 H   0  0  0  0  0  0  0  0  0  0  0  0
   42.8644   31.0923   37.5329 H   0  0  0  0  0  0  0  0  0  0  0  0
   43.6886   30.7537   38.8033 H   0  0  0  0  0  0  0  0  0  0  0  0
   43.1193   35.6296   39.0496 H   0  0  0  0  0  0  0  0  0  0  0  0
   43.7996   31.7606   40.8888 H   0  0  0  0  0  0  0  0  0  0  0  0
   43.8016   35.3513   43.2332 H   0  0  0  0  0  0  0  0  0  0  0  0
  1  3  1  0
  2  1  1  0
  3  2  1  6
  3  4  1  0
  3  5  1  0
  4  5  1  0
  5  6  1  0
  6  7  2  0
  7  8  1  0
  9  8  2  0
 10  9  1  0
 11  6  1  0
 11 10  2  0
 12 16  1  0
 13  1  1  0
 13 14  1  0
 13 12  1  0
 14 12  1  0
 15 20  2  0
 16 15  1  0
 16 17  2  0
 17 18  1  0
 18 19  2  0
 20 19  1  0
  1 21  1  6
  4 22  1  0
  4 23  1  0
  5 24  1  1
  7 25  1  0
  8 26  1  0
  9 27  1  0
 10 28  1  0
 12 29  1  6
 13 30  1  6
 14 31  1  0
 14 32  1  0
 15 33  1  0
 17 34  1  0
 19 35  1  0
M  ISO  8  21  13  22  13  23  13  24  13  25  14  26  14  27  14  28  14
M  ISO  7  29  13  30  13  31  13  32  13  33  14  34  14  35  14
M  END
>  <minimizedAffinity>  (1) 
-4.29512644

>  <minimizedRMSD>  (1) 
3.64144039

$$$$
