
     RDKit          3D

 40 44  0  0  0  0  0  0  0  0999 V2000
   45.7380   33.3230   39.0180 C   0  0  0  0  0  0  0  0  0  0  0  0
   47.0980   33.0650   38.9170 C   0  0  0  0  0  0  0  0  0  0  0  0
   47.9250   33.3110   40.0510 C   0  0  0  0  0  0  0  0  0  0  0  0
   47.2950   33.7910   41.1630 N   0  0  0  0  0  0  0  0  0  0  0  0
   45.9660   34.0270   41.2130 C   0  0  0  0  0  0  0  0  0  0  0  0
   45.1920   33.7950   40.1470 N   0  0  0  0  0  0  0  0  0  0  0  0
   45.4040   34.5330   42.4340 N   0  0  0  0  0  0  0  0  0  0  0  0
   44.5160   35.5300   42.5500 C   0  0  0  0  0  0  0  0  0  0  0  0
   44.2390   35.7010   43.8720 N   0  0  0  0  0  0  0  0  0  0  0  0
   44.9650   34.8040   44.5370 C   0  0  0  0  0  0  0  0  0  0  0  0
   45.1160   34.4870   45.8600 C   0  0  0  0  0  0  0  0  0  0  0  0
   45.9300   33.5150   46.2840 N   0  0  0  0  0  0  0  0  0  0  0  0
   46.6600   32.7790   45.4290 C   0  0  0  0  0  0  0  0  0  0  0  0
   46.5150   33.0860   44.1260 N   0  0  0  0  0  0  0  0  0  0  0  0
   45.7120   34.0500   43.6520 C   0  0  0  0  0  0  0  0  0  0  0  0
   44.4110   35.1770   46.8760 N   0  0  0  0  0  0  0  0  0  0  0  0
   44.8080   32.9700   37.5180 S   0  0  0  0  0  0  0  0  0  0  0  0
   43.1570   32.4010   37.9160 C   0  0  0  0  0  0  0  0  0  0  0  0
   42.9470   31.0320   37.8410 C   0  0  0  0  0  0  0  0  0  0  0  0
   41.6800   30.5200   38.1390 C   0  0  0  0  0  0  0  0  0  0  0  0
   40.7300   31.4340   38.4870 C   0  0  0  0  0  0  0  0  0  0  0  0
   40.8780   32.8050   38.5800 C   0  0  0  0  0  0  0  0  0  0  0  0
   39.8390   33.6380   38.9450 C   0  0  0  0  0  0  0  0  0  0  0  0
   40.1480   34.9890   38.9910 C   0  0  0  0  0  0  0  0  0  0  0  0
   41.3940   35.5100   38.7000 C   0  0  0  0  0  0  0  0  0  0  0  0
   42.4120   34.6540   38.3370 C   0  0  0  0  0  0  0  0  0  0  0  0
   42.1510   33.2880   38.2770 C   0  0  0  0  0  0  0  0  0  0  0  0
   47.5284   32.6788   37.9813 H   0  0  0  0  0  0  0  0  0  0  0  0
   49.0090   33.1248   40.0316 H   0  0  0  0  0  0  0  0  0  0  0  0
   44.0853   36.1100   41.7204 H   0  0  0  0  0  0  0  0  0  0  0  0
   47.3320   31.9782   45.7711 H   0  0  0  0  0  0  0  0  0  0  0  0
   44.5447   34.9165   47.8635 H   0  0  0  0  0  0  0  0  0  0  0  0
   43.7645   35.9394   46.6275 H   0  0  0  0  0  0  0  0  0  0  0  0
   43.7663   30.3577   37.5509 H   0  0  0  0  0  0  0  0  0  0  0  0
   41.4626   29.4426   38.0952 H   0  0  0  0  0  0  0  0  0  0  0  0
   39.7320   31.0347   38.7204 H   0  0  0  0  0  0  0  0  0  0  0  0
   38.8352   33.2561   39.1829 H   0  0  0  0  0  0  0  0  0  0  0  0
   39.3505   35.6904   39.2774 H   0  0  0  0  0  0  0  0  0  0  0  0
   41.5716   36.5941   38.7572 H   0  0  0  0  0  0  0  0  0  0  0  0
   43.4128   35.0436   38.0990 H   0  0  0  0  0  0  0  0  0  0  0  0
  1  6  1  0
  2  1  2  0
  2  3  1  0
  3  4  2  0
  4  5  1  0
  5  7  1  0
  6  5  2  0
  7  8  1  0
  7 15  1  0
  8  9  2  0
  9 10  1  0
 10 11  2  0
 11 12  1  0
 11 16  1  0
 13 12  2  0
 14 13  1  0
 15 14  2  0
 15 10  1  0
 17 18  1  0
 17  1  1  0
 18 27  1  0
 19 18  2  0
 19 20  1  0
 20 21  2  0
 21 22  1  0
 22 23  2  0
 23 24  1  0
 25 24  2  0
 26 25  1  0
 27 26  2  0
 27 22  1  0
  2 28  1  0
  3 29  1  0
  8 30  1  0
 13 31  1  0
 16 32  1  0
 16 33  1  0
 19 34  1  0
 20 35  1  0
 21 36  1  0
 23 37  1  0
 24 38  1  0
 25 39  1  0
 26 40  1  0
M  ISO  8  28  14  29  14  30  14  31  14  34  14  35  14  36  14  37  14
M  ISO  3  38  14  39  14  40  14
M  END
>  <minimizedAffinity>  (1) 
-6.84045219

>  <minimizedRMSD>  (1) 
2.49168086

$$$$
