
     RDKit          3D

 37 40  0  0  1  0  0  0  0  0999 V2000
   47.0960   33.4140   39.2110 C   0  0  0  0  0  0  0  0  0  0  0  0
   48.4340   33.1010   39.3890 C   0  0  0  0  0  0  0  0  0  0  0  0
   48.9860   33.2930   40.6690 C   0  0  0  0  0  0  0  0  0  0  0  0
   48.1560   33.7740   41.6410 N   0  0  0  0  0  0  0  0  0  0  0  0
   46.8710   34.0610   41.4210 C   0  0  0  0  0  0  0  0  0  0  0  0
   46.3230   33.8850   40.2050 N   0  0  0  0  0  0  0  0  0  0  0  0
   46.0750   34.5570   42.5000 N   0  0  0  0  0  0  0  0  0  0  0  0
   45.1920   35.5870   42.4430 C   0  0  0  0  0  0  0  0  0  0  0  0
   44.6410   35.7360   43.6820 N   0  0  0  0  0  0  0  0  0  0  0  0
   45.1960   34.7990   44.4650 C   0  0  0  0  0  0  0  0  0  0  0  0
   45.0450   34.4600   45.7850 C   0  0  0  0  0  0  0  0  0  0  0  0
   45.7210   33.4740   46.3450 N   0  0  0  0  0  0  0  0  0  0  0  0
   46.6160   32.7250   45.6510 C   0  0  0  0  0  0  0  0  0  0  0  0
   46.7600   33.0580   44.3600 N   0  0  0  0  0  0  0  0  0  0  0  0
   46.1010   34.0450   43.7470 C   0  0  0  0  0  0  0  0  0  0  0  0
   44.1450   35.1560   46.6310 N   0  0  0  0  0  0  0  0  0  0  0  0
   46.4620   33.1530   37.5250 S   0  0  0  0  0  0  0  0  0  0  0  0
   47.0860   30.9380   36.0840 N   0  0  0  0  0  0  0  0  0  0  0  0
   47.6940   32.0810   36.7120 C   0  0  1  0  0  0  0  0  0  0  0  0
   48.4010   32.9410   35.6850 C   0  0  0  0  0  0  0  0  0  0  0  0
   49.2060   32.2140   34.8460 O   0  0  0  0  0  0  0  0  0  0  0  0
   48.5880   31.1410   34.2340 C   0  0  0  0  0  0  0  0  0  0  0  0
   47.1620   30.9440   34.6460 C   0  0  0  0  0  0  0  0  0  0  0  0
   49.0436   32.7157   38.5584 H   0  0  0  0  0  0  0  0  0  0  0  0
   50.0417   33.0652   40.8779 H   0  0  0  0  0  0  0  0  0  0  0  0
   44.9617   36.1939   41.5549 H   0  0  0  0  0  0  0  0  0  0  0  0
   47.1824   31.9038   46.1146 H   0  0  0  0  0  0  0  0  0  0  0  0
   44.0503   34.8814   47.6192 H   0  0  0  0  0  0  0  0  0  0  0  0
   43.5859   35.9362   46.2574 H   0  0  0  0  0  0  0  0  0  0  0  0
   47.5589   30.0904   36.4288 H   0  0  0  0  0  0  0  0  0  0  0  0
   48.3967   31.6790   37.4567 H   0  0  0  0  0  0  0  0  0  0  0  0
   47.6432   33.4616   35.0811 H   0  0  0  0  0  0  0  0  0  0  0  0
   49.0439   33.6472   36.2308 H   0  0  0  0  0  0  0  0  0  0  0  0
   49.1497   30.2291   34.4847 H   0  0  0  0  0  0  0  0  0  0  0  0
   48.5815   31.3507   33.1542 H   0  0  0  0  0  0  0  0  0  0  0  0
   46.5464   31.7639   34.2476 H   0  0  0  0  0  0  0  0  0  0  0  0
   46.7895   29.9877   34.2502 H   0  0  0  0  0  0  0  0  0  0  0  0
  1  2  2  0
  1  6  1  0
  2  3  1  0
  3  4  2  0
  5  4  1  0
  5  7  1  0
  6  5  2  0
  7 15  1  0
  8  7  1  0
  8  9  2  0
  9 10  1  0
 10 11  2  0
 11 12  1  0
 11 16  1  0
 13 12  2  0
 14 13  1  0
 15 14  2  0
 15 10  1  0
 17  1  1  0
 18 19  1  0
 19 17  1  0
 20 19  1  0
 21 20  1  0
 22 23  1  0
 22 21  1  0
 23 18  1  0
  2 24  1  0
  3 25  1  0
  8 26  1  0
 13 27  1  0
 16 28  1  0
 16 29  1  0
 18 30  1  0
 19 31  1  1
 20 32  1  0
 20 33  1  0
 22 34  1  0
 22 35  1  0
 23 36  1  0
 23 37  1  0
M  ISO  8  24  14  25  14  26  14  27  14  30   5  31  13  32  13  33  13
M  ISO  4  34  13  35  13  36  13  37  13
M  END
>  <minimizedAffinity>  (1) 
-5.88144636

>  <minimizedRMSD>  (1) 
2.48816633

$$$$
