
     RDKit          3D

 20 20  0  0  0  0  0  0  0  0999 V2000
   44.3950   35.7920   44.4820 C   0  0  0  0  0  0  0  0  0  0  0  0
   44.6520   35.1270   43.2870 C   0  0  0  0  0  0  0  0  0  0  0  0
   45.2660   33.8760   43.3340 C   0  0  0  0  0  0  0  0  0  0  0  0
   45.5750   33.3840   44.5520 N   0  0  0  0  0  0  0  0  0  0  0  0
   45.3180   34.0420   45.6980 C   0  0  0  0  0  0  0  0  0  0  0  0
   44.7230   35.2580   45.6780 N   0  0  0  0  0  0  0  0  0  0  0  0
   44.2390   35.8300   42.0510 C   0  0  0  0  0  0  0  0  0  0  0  0
   43.7070   34.8970   41.0540 C   0  0  0  0  0  0  0  0  0  0  0  0
   42.4370   34.7450   40.7870 C   0  0  0  0  0  0  0  0  0  0  0  0
   41.3810   35.5140   41.4780 C   0  0  0  0  0  0  0  0  0  0  0  0
   43.9115   36.7796   44.4515 H   0  0  0  0  0  0  0  0  0  0  0  0
   45.4894   33.3131   42.4157 H   0  0  0  0  0  0  0  0  0  0  0  0
   45.5943   33.5870   46.6606 H   0  0  0  0  0  0  0  0  0  0  0  0
   43.4615   36.5666   42.3017 H   0  0  0  0  0  0  0  0  0  0  0  0
   45.1238   36.3242   41.6233 H   0  0  0  0  0  0  0  0  0  0  0  0
   44.4259   34.2827   40.4920 H   0  0  0  0  0  0  0  0  0  0  0  0
   42.1423   34.0161   40.0177 H   0  0  0  0  0  0  0  0  0  0  0  0
   41.5110   35.4193   42.5662 H   0  0  0  0  0  0  0  0  0  0  0  0
   41.4517   36.5736   41.1911 H   0  0  0  0  0  0  0  0  0  0  0  0
   40.3943   35.1215   41.1911 H   0  0  0  0  0  0  0  0  0  0  0  0
  1  6  2  0
  2  3  2  0
  2  1  1  0
  3  4  1  0
  4  5  2  0
  6  5  1  0
  7  2  1  0
  8  7  1  0
  9  8  2  0
  9 10  1  0
  1 11  1  0
  3 12  1  0
  5 13  1  0
  7 14  1  0
  7 15  1  0
  8 16  1  0
  9 17  1  0
 10 18  1  0
 10 19  1  0
 10 20  1  0
M  ISO  8  11  14  12  14  13  14  14   8  15   8  18   8  19   8  20   8
M  END
>  <minimizedAffinity>  (1) 
-3.45437908

>  <minimizedRMSD>  (1) 
0.951634586

$$$$
