
     RDKit          3D

 27 29  0  0  0  0  0  0  0  0999 V2000
   43.7880   35.8090   41.3810 O   0  0  0  0  0  0  0  0  0  0  0  0
   41.4180   35.3730   41.6480 C   0  0  0  0  0  0  0  0  0  0  0  0
   42.5460   35.4780   40.8650 C   0  0  0  0  0  0  0  0  0  0  0  0
   42.3890   35.2340   39.5110 C   0  0  0  0  0  0  0  0  0  0  0  0
   41.1710   34.9040   38.9710 C   0  0  0  0  0  0  0  0  0  0  0  0
   40.7760   34.6290   37.7160 N   0  0  0  0  0  0  0  0  0  0  0  0
   39.4600   34.3560   37.6690 C   0  0  0  0  0  0  0  0  0  0  0  0
   39.0230   34.4670   38.9420 N   0  0  0  0  0  0  0  0  0  0  0  0
   40.0400   34.7970   39.7450 C   0  0  0  0  0  0  0  0  0  0  0  0
   40.1860   35.0400   41.1100 C   0  0  0  0  0  0  0  0  0  0  0  0
   44.7100   34.8180   41.6700 C   0  0  0  0  0  0  0  0  0  0  0  0
   44.5040   35.6020   43.9360 C   0  0  0  0  0  0  0  0  0  0  0  0
   44.8920   34.5760   43.1010 C   0  0  0  0  0  0  0  0  0  0  0  0
   45.4100   33.4370   43.6820 C   0  0  0  0  0  0  0  0  0  0  0  0
   45.5000   33.4090   45.0310 N   0  0  0  0  0  0  0  0  0  0  0  0
   45.1200   34.4120   45.8330 C   0  0  0  0  0  0  0  0  0  0  0  0
   44.5970   35.5690   45.3040 N   0  0  0  0  0  0  0  0  0  0  0  0
   41.4976   35.5585   42.7293 H   0  0  0  0  0  0  0  0  0  0  0  0
   43.2650   35.3067   38.8496 H   0  0  0  0  0  0  0  0  0  0  0  0
   41.4002   34.6275   36.8967 H   0  0  0  0  0  0  0  0  0  0  0  0
   38.8650   34.0969   36.7809 H   0  0  0  0  0  0  0  0  0  0  0  0
   39.3091   34.9661   41.7700 H   0  0  0  0  0  0  0  0  0  0  0  0
   44.3712   33.8825   41.2010 H   0  0  0  0  0  0  0  0  0  0  0  0
   45.6794   35.1602   41.2785 H   0  0  0  0  0  0  0  0  0  0  0  0
   44.0911   36.5103   43.4729 H   0  0  0  0  0  0  0  0  0  0  0  0
   45.7377   32.5833   43.0706 H   0  0  0  0  0  0  0  0  0  0  0  0
   45.2269   34.3098   46.9230 H   0  0  0  0  0  0  0  0  0  0  0  0
  1 11  1  0
  3  1  1  0
  3  2  2  0
  4  3  1  0
  5  4  2  0
  5  9  1  0
  6  5  1  0
  7  6  1  0
  7  8  2  0
  8  9  1  0
  9 10  2  0
 10  2  1  0
 11 13  1  0
 12 17  2  0
 13 14  2  0
 13 12  1  0
 14 15  1  0
 15 16  2  0
 17 16  1  0
  2 18  1  0
  4 19  1  0
  6 20  1  0
  7 21  1  0
 10 22  1  0
 11 23  1  0
 11 24  1  0
 12 25  1  0
 14 26  1  0
 16 27  1  0
M  ISO  8  18  14  19  14  20   9  21  14  22  14  23   8  24   8  25  14
M  ISO  2  26  14  27  14
M  END
>  <minimizedAffinity>  (1) 
-5.32374096

>  <minimizedRMSD>  (1) 
2.49999309

$$$$
