
     RDKit          3D

 27 28  0  0  0  0  0  0  0  0999 V2000
   42.4330   34.4160   40.9070 O   0  0  0  0  0  0  0  0  0  0  0  0
   40.4320   34.1750   39.6210 C   0  0  0  0  0  0  0  0  0  0  0  0
   41.7100   34.7270   39.7630 C   0  0  0  0  0  0  0  0  0  0  0  0
   42.2090   35.5560   38.7730 C   0  0  0  0  0  0  0  0  0  0  0  0
   41.4830   35.8670   37.6280 C   0  0  0  0  0  0  0  0  0  0  0  0
   40.2370   35.2810   37.5700 C   0  0  0  0  0  0  0  0  0  0  0  0
   39.6630   34.4530   38.4950 C   0  0  0  0  0  0  0  0  0  0  0  0
   39.8280   33.1290   40.8910 S   0  0  0  0  0  0  0  0  0  0  0  0
   39.7960   33.8430   42.2200 O   0  0  0  0  0  0  0  0  0  0  0  0
   40.6870   31.9020   41.0210 O   0  0  0  0  0  0  0  0  0  0  0  0
   43.5390   35.1810   41.2400 C   0  0  0  0  0  0  0  0  0  0  0  0
   44.2320   35.7620   43.4940 C   0  0  0  0  0  0  0  0  0  0  0  0
   44.1740   34.7670   42.5170 C   0  0  0  0  0  0  0  0  0  0  0  0
   44.7000   33.5230   42.8230 C   0  0  0  0  0  0  0  0  0  0  0  0
   45.2300   33.3550   44.0360 N   0  0  0  0  0  0  0  0  0  0  0  0
   45.2820   34.3150   44.9720 C   0  0  0  0  0  0  0  0  0  0  0  0
   44.7810   35.5620   44.7330 N   0  0  0  0  0  0  0  0  0  0  0  0
   43.2149   35.9838   38.8961 H   0  0  0  0  0  0  0  0  0  0  0  0
   41.8705   36.5248   36.8361 H   0  0  0  0  0  0  0  0  0  0  0  0
   39.6349   35.5049   36.6771 H   0  0  0  0  0  0  0  0  0  0  0  0
   38.6558   34.0328   38.3574 H   0  0  0  0  0  0  0  0  0  0  0  0
   38.5527   32.7672   40.5453 H   0  0  0  0  0  0  0  0  0  0  0  0
   44.2824   35.0900   40.4343 H   0  0  0  0  0  0  0  0  0  0  0  0
   43.1930   36.2173   41.3680 H   0  0  0  0  0  0  0  0  0  0  0  0
   43.8175   36.7532   43.2581 H   0  0  0  0  0  0  0  0  0  0  0  0
   44.6815   32.7018   42.0914 H   0  0  0  0  0  0  0  0  0  0  0  0
   45.7363   34.0932   45.9490 H   0  0  0  0  0  0  0  0  0  0  0  0
  1 11  1  0
  2  3  2  0
  2  8  1  0
  3  1  1  0
  4  3  1  0
  5  4  2  0
  6  5  1  0
  6  7  2  0
  7  2  1  0
  8 10  2  0
  8  9  2  0
 11 13  1  0
 12 17  2  0
 13 14  2  0
 13 12  1  0
 14 15  1  0
 15 16  2  0
 17 16  1  0
  4 18  1  0
  5 19  1  0
  6 20  1  0
  7 21  1  0
  8 22  1  0
 11 23  1  0
 11 24  1  0
 12 25  1  0
 14 26  1  0
 16 27  1  0
M  ISO  8  18  14  19  14  20  14  21  14  22  11  23   8  24   8  25  14
M  ISO  2  26  14  27  14
M  END
>  <minimizedAffinity>  (1) 
-4.6998229

>  <minimizedRMSD>  (1) 
1.3716433

$$$$
