
     RDKit          3D

 22 23  0  0  0  0  0  0  0  0999 V2000
   43.7620   35.4000   41.5260 C   0  0  0  0  0  0  0  0  0  0  0  0
   44.2770   35.7720   43.8470 C   0  0  0  0  0  0  0  0  0  0  0  0
   44.3310   34.9000   42.7790 C   0  0  0  0  0  0  0  0  0  0  0  0
   44.9080   33.6660   42.9930 C   0  0  0  0  0  0  0  0  0  0  0  0
   45.3810   33.3850   44.2210 N   0  0  0  0  0  0  0  0  0  0  0  0
   45.3200   34.2510   45.2580 C   0  0  0  0  0  0  0  0  0  0  0  0
   44.7620   35.4760   45.0970 N   0  0  0  0  0  0  0  0  0  0  0  0
   42.4010   35.6520   41.5830 O   0  0  0  0  0  0  0  0  0  0  0  0
   41.6010   35.3380   40.4920 C   0  0  0  0  0  0  0  0  0  0  0  0
   40.2360   35.1800   40.7420 C   0  0  0  0  0  0  0  0  0  0  0  0
   39.3850   34.8640   39.6830 C   0  0  0  0  0  0  0  0  0  0  0  0
   39.8790   34.7140   38.4410 N   0  0  0  0  0  0  0  0  0  0  0  0
   41.1790   34.8680   38.2240 C   0  0  0  0  0  0  0  0  0  0  0  0
   42.0510   35.1770   39.2270 N   0  0  0  0  0  0  0  0  0  0  0  0
   43.9418   34.6501   40.7416 H   0  0  0  0  0  0  0  0  0  0  0  0
   44.2538   36.3613   41.3160 H   0  0  0  0  0  0  0  0  0  0  0  0
   43.8197   36.7598   43.6881 H   0  0  0  0  0  0  0  0  0  0  0  0
   44.9799   32.9291   42.1795 H   0  0  0  0  0  0  0  0  0  0  0  0
   45.7256   33.9596   46.2381 H   0  0  0  0  0  0  0  0  0  0  0  0
   39.8376   35.3031   41.7599 H   0  0  0  0  0  0  0  0  0  0  0  0
   38.3074   34.7372   39.8640 H   0  0  0  0  0  0  0  0  0  0  0  0
   41.5664   34.7425   37.2021 H   0  0  0  0  0  0  0  0  0  0  0  0
  1  8  1  0
  1  3  1  0
  2  7  2  0
  3  4  2  0
  3  2  1  0
  4  5  1  0
  5  6  2  0
  7  6  1  0
  9 10  2  0
  9  8  1  0
 11 10  1  0
 12 11  2  0
 13 12  1  0
 13 14  2  0
 14  9  1  0
  1 15  1  0
  1 16  1  0
  2 17  1  0
  4 18  1  0
  6 19  1  0
 10 20  1  0
 11 21  1  0
 13 22  1  0
M  ISO  8  15   8  16   8  17  14  18  14  19  14  20  14  21  14  22  14
M  END
>  <minimizedAffinity>  (1) 
-4.19807291

>  <minimizedRMSD>  (1) 
1.38345039

$$$$
