
     RDKit          3D

 33 34  0  0  0  0  0  0  0  0999 V2000
   44.9140   35.9470   43.2350 C   0  0  0  0  0  0  0  0  0  0  0  0
   45.0500   34.6610   45.2340 C   0  0  0  0  0  0  0  0  0  0  0  0
   45.6080   34.8640   43.9600 C   0  0  0  0  0  0  0  0  0  0  0  0
   46.6690   34.0680   43.6220 C   0  0  0  0  0  0  0  0  0  0  0  0
   47.0730   33.1820   44.5250 N   0  0  0  0  0  0  0  0  0  0  0  0
   46.5530   32.9830   45.7300 C   0  0  0  0  0  0  0  0  0  0  0  0
   45.4750   33.7490   46.1480 N   0  0  0  0  0  0  0  0  0  0  0  0
   43.7990   35.5430   42.5290 O   0  0  0  0  0  0  0  0  0  0  0  0
   43.7190   35.2670   41.1870 C   0  0  0  0  0  0  0  0  0  0  0  0
   42.4830   35.2960   40.6420 C   0  0  0  0  0  0  0  0  0  0  0  0
   42.1060   35.1070   39.1960 C   0  0  0  0  0  0  0  0  0  0  0  0
   40.7650   35.4960   38.9010 N   0  0  0  0  0  0  0  0  0  0  0  0
   40.2840   34.5890   37.8560 C   0  0  0  0  0  0  0  0  0  0  0  0
   38.8660   34.2250   38.2200 C   0  0  0  0  0  0  0  0  0  0  0  0
   38.8320   34.3530   39.7250 C   0  0  0  0  0  0  0  0  0  0  0  0
   39.9600   35.2700   40.0700 C   0  0  0  0  0  0  0  0  0  0  0  0
   44.6000   36.7045   43.9683 H   0  0  0  0  0  0  0  0  0  0  0  0
   45.6289   36.3342   42.4940 H   0  0  0  0  0  0  0  0  0  0  0  0
   44.1960   35.2946   45.5156 H   0  0  0  0  0  0  0  0  0  0  0  0
   47.1656   34.1583   42.6446 H   0  0  0  0  0  0  0  0  0  0  0  0
   46.9751   32.2142   46.3939 H   0  0  0  0  0  0  0  0  0  0  0  0
   44.6120   35.0350   40.5881 H   0  0  0  0  0  0  0  0  0  0  0  0
   41.6516   35.4798   41.3384 H   0  0  0  0  0  0  0  0  0  0  0  0
   42.7873   35.7094   38.5771 H   0  0  0  0  0  0  0  0  0  0  0  0
   42.1857   34.0315   38.9792 H   0  0  0  0  0  0  0  0  0  0  0  0
   40.9104   33.6855   37.8199 H   0  0  0  0  0  0  0  0  0  0  0  0
   40.3293   35.0655   36.8656 H   0  0  0  0  0  0  0  0  0  0  0  0
   38.1517   34.9185   37.7522 H   0  0  0  0  0  0  0  0  0  0  0  0
   38.5842   33.2197   37.8736 H   0  0  0  0  0  0  0  0  0  0  0  0
   37.8735   34.7812   40.0534 H   0  0  0  0  0  0  0  0  0  0  0  0
   38.9319   33.3764   40.2213 H   0  0  0  0  0  0  0  0  0  0  0  0
   40.5768   34.8130   40.8578 H   0  0  0  0  0  0  0  0  0  0  0  0
   39.5579   36.2283   40.4305 H   0  0  0  0  0  0  0  0  0  0  0  0
  1  3  1  0
  2  7  2  0
  3  2  1  0
  4  3  2  0
  4  5  1  0
  5  6  2  0
  6  7  1  0
  8  1  1  0
  9  8  1  0
 10  9  2  0
 11 10  1  0
 12 11  1  0
 12 16  1  0
 13 14  1  0
 13 12  1  0
 14 15  1  0
 15 16  1  0
  1 17  1  0
  1 18  1  0
  2 19  1  0
  4 20  1  0
  6 21  1  0
  9 22  1  0
 10 23  1  0
 11 24  1  0
 11 25  1  0
 13 26  1  0
 13 27  1  0
 14 28  1  0
 14 29  1  0
 15 30  1  0
 15 31  1  0
 16 32  1  0
 16 33  1  0
M  ISO  8  17   8  18   8  19  14  20  14  21  14  24   8  25   8  26  13
M  ISO  7  27  13  28  13  29  13  30  13  31  13  32  13  33  13
M  END
>  <minimizedAffinity>  (1) 
-4.79058313

>  <minimizedRMSD>  (1) 
2.31855893

$$$$
