
     RDKit          3D

 36 37  0  0  0  0  0  0  0  0999 V2000
   44.8420   34.7410   40.7810 O   0  0  0  0  0  0  0  0  0  0  0  0
   45.7210   34.1290   41.6800 C   0  0  0  0  0  0  0  0  0  0  0  0
   44.8500   35.6910   43.3330 C   0  0  0  0  0  0  0  0  0  0  0  0
   45.3970   34.4490   43.0790 C   0  0  0  0  0  0  0  0  0  0  0  0
   45.6020   33.5880   44.1540 C   0  0  0  0  0  0  0  0  0  0  0  0
   45.2560   34.0230   45.3570 N   0  0  0  0  0  0  0  0  0  0  0  0
   44.7200   35.2340   45.6130 C   0  0  0  0  0  0  0  0  0  0  0  0
   44.5030   36.1080   44.5850 N   0  0  0  0  0  0  0  0  0  0  0  0
   43.7260   34.1470   40.2760 C   0  0  0  0  0  0  0  0  0  0  0  0
   42.6020   34.8650   40.0790 C   0  0  0  0  0  0  0  0  0  0  0  0
   41.2890   34.3660   39.5320 C   0  0  0  0  0  0  0  0  0  0  0  0
   40.1700   34.7660   40.3350 N   0  0  0  0  0  0  0  0  0  0  0  0
   40.1880   34.1670   41.6470 C   0  0  0  0  0  0  0  0  0  0  0  0
   39.8760   32.7050   41.5370 C   0  0  0  0  0  0  0  0  0  0  0  0
   38.5270   32.5160   40.8740 C   0  0  0  0  0  0  0  0  0  0  0  0
   38.4730   33.1850   39.5200 C   0  0  0  0  0  0  0  0  0  0  0  0
   38.9010   34.6250   39.6910 C   0  0  0  0  0  0  0  0  0  0  0  0
   45.6649   33.0389   41.5438 H   0  0  0  0  0  0  0  0  0  0  0  0
   46.7331   34.5067   41.4728 H   0  0  0  0  0  0  0  0  0  0  0  0
   44.6865   36.3755   42.4876 H   0  0  0  0  0  0  0  0  0  0  0  0
   46.0340   32.5866   44.0104 H   0  0  0  0  0  0  0  0  0  0  0  0
   44.4590   35.5166   46.6435 H   0  0  0  0  0  0  0  0  0  0  0  0
   43.7414   33.0756   40.0274 H   0  0  0  0  0  0  0  0  0  0  0  0
   42.6481   35.9310   40.3466 H   0  0  0  0  0  0  0  0  0  0  0  0
   41.1552   34.7668   38.5164 H   0  0  0  0  0  0  0  0  0  0  0  0
   41.3238   33.2666   39.5326 H   0  0  0  0  0  0  0  0  0  0  0  0
   41.1845   34.2959   42.0946 H   0  0  0  0  0  0  0  0  0  0  0  0
   39.4333   34.6547   42.2815 H   0  0  0  0  0  0  0  0  0  0  0  0
   40.6517   32.2105   40.9338 H   0  0  0  0  0  0  0  0  0  0  0  0
   39.8508   32.2625   42.5438 H   0  0  0  0  0  0  0  0  0  0  0  0
   38.3391   31.4395   40.7479 H   0  0  0  0  0  0  0  0  0  0  0  0
   37.7612   32.9764   41.5156 H   0  0  0  0  0  0  0  0  0  0  0  0
   37.4472   33.1452   39.1250 H   0  0  0  0  0  0  0  0  0  0  0  0
   39.1404   32.6701   38.8133 H   0  0  0  0  0  0  0  0  0  0  0  0
   38.9604   35.0918   38.6968 H   0  0  0  0  0  0  0  0  0  0  0  0
   38.1536   35.1125   40.3343 H   0  0  0  0  0  0  0  0  0  0  0  0
  1  2  1  0
  2  4  1  0
  3  8  2  0
  4  3  1  0
  4  5  2  0
  5  6  1  0
  6  7  2  0
  8  7  1  0
  9  1  1  0
 10  9  2  0
 11 10  1  0
 11 12  1  0
 12 13  1  0
 14 13  1  0
 15 14  1  0
 16 17  1  0
 16 15  1  0
 17 12  1  0
  2 18  1  0
  2 19  1  0
  3 20  1  0
  5 21  1  0
  7 22  1  0
  9 23  1  0
 10 24  1  0
 11 25  1  0
 11 26  1  0
 13 27  1  0
 13 28  1  0
 14 29  1  0
 14 30  1  0
 15 31  1  0
 15 32  1  0
 16 33  1  0
 16 34  1  0
 17 35  1  0
 17 36  1  0
M  ISO  8  18   8  19   8  20  14  21  14  22  14  25   8  26   8  27  13
M  ISO  8  28  13  29  13  30  13  31  13  32  13  33  13  34  13  35  13
M  ISO  1  36  13
M  END
>  <minimizedAffinity>  (1) 
-4.69292021

>  <minimizedRMSD>  (1) 
1.54167664

$$$$
