
     RDKit          3D

 40 41  0  0  0  0  0  0  0  0999 V2000
   43.8280   35.1950   40.9900 C   0  0  0  0  0  0  0  0  0  0  0  0
   43.8990   35.5920   42.2560 C   0  0  0  0  0  0  0  0  0  0  0  0
   45.1480   35.6040   43.1180 C   0  0  0  0  0  0  0  0  0  0  0  0
   44.9340   34.7330   44.1640 O   0  0  0  0  0  0  0  0  0  0  0  0
   45.7040   32.5800   42.7980 O   0  0  0  0  0  0  0  0  0  0  0  0
   45.9440   33.3880   44.0520 P   0  0  1  0  0  0  0  0  0  0  0  0
   47.5750   33.8890   44.0150 O   0  0  0  0  0  0  0  0  0  0  0  0
   45.7600   32.4090   45.4150 O   0  0  0  0  0  0  0  0  0  0  0  0
   46.0680   33.0740   46.5840 C   0  0  0  0  0  0  0  0  0  0  0  0
   46.9720   32.4010   47.5710 C   0  0  0  0  0  0  0  0  0  0  0  0
   45.4880   32.4790   47.8450 C   0  0  0  0  0  0  0  0  0  0  0  0
   42.5760   35.2690   40.4000 O   0  0  0  0  0  0  0  0  0  0  0  0
   41.3870   35.6020   40.9820 C   0  0  0  0  0  0  0  0  0  0  0  0
   40.6800   33.3520   41.6420 C   0  0  0  0  0  0  0  0  0  0  0  0
   40.3660   34.5040   40.8830 C   0  0  0  0  0  0  0  0  0  0  0  0
   39.2060   34.4920   40.1750 C   0  0  0  0  0  0  0  0  0  0  0  0
   38.4580   33.4030   40.2500 N   0  0  0  0  0  0  0  0  0  0  0  0
   38.7410   32.3250   40.9540 C   0  0  0  0  0  0  0  0  0  0  0  0
   39.9120   32.2580   41.7080 N   0  0  0  0  0  0  0  0  0  0  0  0
   37.8210   31.1630   40.9600 C   0  0  0  0  0  0  0  0  0  0  0  0
   38.0160   30.3450   39.6850 C   0  0  0  0  0  0  0  0  0  0  0  0
   44.7097   34.8296   40.4431 H   0  0  0  0  0  0  0  0  0  0  0  0
   42.9670   35.9443   42.7221 H   0  0  0  0  0  0  0  0  0  0  0  0
   46.0160   35.2762   42.5271 H   0  0  0  0  0  0  0  0  0  0  0  0
   45.3525   36.6180   43.4920 H   0  0  0  0  0  0  0  0  0  0  0  0
   47.9097   33.9918   44.9410 H   0  0  0  0  0  0  0  0  0  0  0  0
   46.0709   34.0626   46.1017 H   0  0  0  0  0  0  0  0  0  0  0  0
   47.4346   31.4345   47.3221 H   0  0  0  0  0  0  0  0  0  0  0  0
   47.8792   32.6952   48.1191 H   0  0  0  0  0  0  0  0  0  0  0  0
   45.1079   33.1364   48.6408 H   0  0  0  0  0  0  0  0  0  0  0  0
   44.6963   31.7498   48.0722 H   0  0  0  0  0  0  0  0  0  0  0  0
   41.5649   35.8225   42.0449 H   0  0  0  0  0  0  0  0  0  0  0  0
   40.9881   36.4763   40.4467 H   0  0  0  0  0  0  0  0  0  0  0  0
   41.6182   33.3558   42.2163 H   0  0  0  0  0  0  0  0  0  0  0  0
   38.9008   35.3539   39.5635 H   0  0  0  0  0  0  0  0  0  0  0  0
   38.0346   30.5321   41.8354 H   0  0  0  0  0  0  0  0  0  0  0  0
   36.7821   31.5213   41.0074 H   0  0  0  0  0  0  0  0  0  0  0  0
   38.2636   29.3065   39.9499 H   0  0  0  0  0  0  0  0  0  0  0  0
   37.0888   30.3614   39.0934 H   0  0  0  0  0  0  0  0  0  0  0  0
   38.8361   30.7780   39.0934 H   0  0  0  0  0  0  0  0  0  0  0  0
  1  2  2  0
  2  3  1  0
  3  4  1  0
  6  5  2  0
  6  4  1  0
  6  8  1  0
  7  6  1  0
  8  9  1  0
  9 10  1  0
  9 11  1  0
 10 11  1  0
 12 13  1  0
 12  1  1  0
 14 19  2  0
 15 13  1  0
 15 14  1  0
 16 17  1  0
 16 15  2  0
 17 18  2  0
 18 20  1  0
 18 19  1  0
 21 20  1  0
  1 22  1  0
  2 23  1  0
  3 24  1  0
  3 25  1  0
  7 26  1  0
  9 27  1  0
 10 28  1  0
 10 29  1  0
 11 30  1  0
 11 31  1  0
 13 32  1  0
 13 33  1  0
 14 34  1  0
 16 35  1  0
 20 36  1  0
 20 37  1  0
 21 38  1  0
 21 39  1  0
 21 40  1  0
M  ISO  8  24   8  25   8  26   3  27  13  28  13  29  13  30  13  31  13
M  ISO  8  32   8  33   8  34  14  35  14  36   8  37   8  38   8  39   8
M  ISO  1  40   8
M  END
>  <minimizedAffinity>  (1) 
-4.76331806

>  <minimizedRMSD>  (1) 
0.472251177

$$$$
