
     RDKit          3D

 42 44  0  0  0  0  0  0  0  0999 V2000
   44.0570   35.3400   41.3210 C   0  0  0  0  0  0  0  0  0  0  0  0
   44.0420   35.6100   42.6230 C   0  0  0  0  0  0  0  0  0  0  0  0
   45.2650   35.5350   43.5240 C   0  0  0  0  0  0  0  0  0  0  0  0
   44.9840   34.5890   44.4930 O   0  0  0  0  0  0  0  0  0  0  0  0
   45.6130   32.4310   43.0700 O   0  0  0  0  0  0  0  0  0  0  0  0
   45.9730   33.2350   44.2990 P   0  0  1  0  0  0  0  0  0  0  0  0
   47.5990   33.7180   44.1200 O   0  0  0  0  0  0  0  0  0  0  0  0
   45.8960   32.2600   45.6730 O   0  0  0  0  0  0  0  0  0  0  0  0
   46.2040   32.9530   46.8280 C   0  0  0  0  0  0  0  0  0  0  0  0
   47.0710   32.3060   47.8590 C   0  0  0  0  0  0  0  0  0  0  0  0
   45.5720   32.4130   48.0900 C   0  0  0  0  0  0  0  0  0  0  0  0
   42.8520   35.4540   40.6530 O   0  0  0  0  0  0  0  0  0  0  0  0
   41.6220   35.6460   41.1830 C   0  0  0  0  0  0  0  0  0  0  0  0
   41.0760   33.2820   41.2760 C   0  0  0  0  0  0  0  0  0  0  0  0
   40.6430   34.5530   40.8840 C   0  0  0  0  0  0  0  0  0  0  0  0
   39.4270   34.6870   40.3170 C   0  0  0  0  0  0  0  0  0  0  0  0
   38.7140   33.5680   40.1720 N   0  0  0  0  0  0  0  0  0  0  0  0
   39.1010   32.3500   40.5370 C   0  0  0  0  0  0  0  0  0  0  0  0
   40.3540   32.1690   41.1270 N   0  0  0  0  0  0  0  0  0  0  0  0
   38.2750   31.1580   40.3540 C   0  0  0  0  0  0  0  0  0  0  0  0
   38.4010   30.4850   39.1560 C   0  0  0  0  0  0  0  0  0  0  0  0
   37.5970   29.3480   39.0110 C   0  0  0  0  0  0  0  0  0  0  0  0
   36.7550   28.9300   39.9710 N   0  0  0  0  0  0  0  0  0  0  0  0
   36.6660   29.6180   41.1220 C   0  0  0  0  0  0  0  0  0  0  0  0
   37.4290   30.7340   41.3120 N   0  0  0  0  0  0  0  0  0  0  0  0
   44.9801   35.0415   40.8025 H   0  0  0  0  0  0  0  0  0  0  0  0
   43.0848   35.9062   43.0769 H   0  0  0  0  0  0  0  0  0  0  0  0
   46.1475   35.2314   42.9417 H   0  0  0  0  0  0  0  0  0  0  0  0
   45.4853   36.5132   43.9764 H   0  0  0  0  0  0  0  0  0  0  0  0
   48.0075   33.8393   45.0136 H   0  0  0  0  0  0  0  0  0  0  0  0
   46.2498   33.9227   46.3107 H   0  0  0  0  0  0  0  0  0  0  0  0
   47.5273   31.3258   47.6567 H   0  0  0  0  0  0  0  0  0  0  0  0
   47.9672   32.6079   48.4209 H   0  0  0  0  0  0  0  0  0  0  0  0
   45.1779   33.1038   48.8499 H   0  0  0  0  0  0  0  0  0  0  0  0
   44.7623   31.7046   48.3193 H   0  0  0  0  0  0  0  0  0  0  0  0
   41.7264   35.7253   42.2752 H   0  0  0  0  0  0  0  0  0  0  0  0
   41.2211   36.5614   40.7234 H   0  0  0  0  0  0  0  0  0  0  0  0
   42.0719   33.1942   41.7349 H   0  0  0  0  0  0  0  0  0  0  0  0
   39.0435   35.6653   39.9916 H   0  0  0  0  0  0  0  0  0  0  0  0
   39.0889   30.8202   38.3658 H   0  0  0  0  0  0  0  0  0  0  0  0
   37.6570   28.7744   38.0743 H   0  0  0  0  0  0  0  0  0  0  0  0
   35.9779   29.2817   41.9116 H   0  0  0  0  0  0  0  0  0  0  0  0
  1  2  2  0
  2  3  1  0
  3  4  1  0
  6  5  2  0
  6  4  1  0
  6  8  1  0
  7  6  1  0
  8  9  1  0
  9 10  1  0
  9 11  1  0
 10 11  1  0
 12 13  1  0
 12  1  1  0
 15 13  1  0
 15 14  2  0
 16 15  1  0
 17 16  2  0
 17 18  1  0
 18 19  2  0
 19 14  1  0
 20 18  1  0
 20 25  1  0
 21 20  2  0
 22 21  1  0
 22 23  2  0
 23 24  1  0
 24 25  2  0
  1 26  1  0
  2 27  1  0
  3 28  1  0
  3 29  1  0
  7 30  1  0
  9 31  1  0
 10 32  1  0
 10 33  1  0
 11 34  1  0
 11 35  1  0
 13 36  1  0
 13 37  1  0
 14 38  1  0
 16 39  1  0
 21 40  1  0
 22 41  1  0
 24 42  1  0
M  ISO  8  28   8  29   8  30   3  31  13  32  13  33  13  34  13  35  13
M  ISO  7  36   8  37   8  38  14  39  14  40  14  41  14  42  14
M  END
>  <minimizedAffinity>  (1) 
-5.02867174

>  <minimizedRMSD>  (1) 
0.809833288

$$$$
