
     RDKit          3D

 35 36  0  0  0  0  0  0  0  0999 V2000
   45.1390   35.5930   43.1170 C   0  0  0  0  0  0  0  0  0  0  0  0
   43.9080   35.0620   40.9630 C   0  0  0  0  0  0  0  0  0  0  0  0
   43.9350   35.5500   42.1990 C   0  0  0  0  0  0  0  0  0  0  0  0
   42.6900   35.1240   40.3060 O   0  0  0  0  0  0  0  0  0  0  0  0
   41.5070   35.6160   40.7750 C   0  0  0  0  0  0  0  0  0  0  0  0
   40.5730   33.5030   41.5870 C   0  0  0  0  0  0  0  0  0  0  0  0
   40.3970   34.6050   40.7220 C   0  0  0  0  0  0  0  0  0  0  0  0
   39.2720   34.6330   39.9640 C   0  0  0  0  0  0  0  0  0  0  0  0
   38.4210   33.6270   40.0910 N   0  0  0  0  0  0  0  0  0  0  0  0
   38.5800   32.5920   40.8970 C   0  0  0  0  0  0  0  0  0  0  0  0
   39.7090   32.4910   41.7060 N   0  0  0  0  0  0  0  0  0  0  0  0
   37.6250   31.5790   40.9590 O   0  0  0  0  0  0  0  0  0  0  0  0
   44.9050   34.7070   44.1480 O   0  0  0  0  0  0  0  0  0  0  0  0
   45.7190   32.5580   42.8050 O   0  0  0  0  0  0  0  0  0  0  0  0
   45.9380   33.3810   44.0540 P   0  0  1  0  0  0  0  0  0  0  0  0
   47.5610   33.9050   44.0230 O   0  0  0  0  0  0  0  0  0  0  0  0
   45.7660   32.4060   45.4180 O   0  0  0  0  0  0  0  0  0  0  0  0
   46.1010   33.0600   46.5800 C   0  0  0  0  0  0  0  0  0  0  0  0
   47.0330   32.3990   47.5510 C   0  0  0  0  0  0  0  0  0  0  0  0
   45.5530   32.4700   47.8510 C   0  0  0  0  0  0  0  0  0  0  0  0
   45.2702   36.6091   43.5173 H   0  0  0  0  0  0  0  0  0  0  0  0
   46.0535   35.3192   42.5704 H   0  0  0  0  0  0  0  0  0  0  0  0
   44.8027   34.6329   40.4883 H   0  0  0  0  0  0  0  0  0  0  0  0
   42.9939   35.9616   42.5925 H   0  0  0  0  0  0  0  0  0  0  0  0
   41.6463   35.9312   41.8196 H   0  0  0  0  0  0  0  0  0  0  0  0
   41.2191   36.4597   40.1305 H   0  0  0  0  0  0  0  0  0  0  0  0
   41.4829   33.4759   42.2046 H   0  0  0  0  0  0  0  0  0  0  0  0
   39.0741   35.4621   39.2687 H   0  0  0  0  0  0  0  0  0  0  0  0
   37.7581   30.8098   41.5678 H   0  0  0  0  0  0  0  0  0  0  0  0
   47.8911   34.0116   44.9502 H   0  0  0  0  0  0  0  0  0  0  0  0
   46.0907   34.0460   46.0924 H   0  0  0  0  0  0  0  0  0  0  0  0
   47.4974   31.4344   47.2982 H   0  0  0  0  0  0  0  0  0  0  0  0
   47.9493   32.7016   48.0790 H   0  0  0  0  0  0  0  0  0  0  0  0
   45.1838   33.1294   48.6503 H   0  0  0  0  0  0  0  0  0  0  0  0
   44.7708   31.7366   48.0968 H   0  0  0  0  0  0  0  0  0  0  0  0
  1 13  1  0
  2  3  2  0
  3  1  1  0
  4  5  1  0
  4  2  1  0
  6 11  2  0
  7  5  1  0
  7  6  1  0
  8  9  1  0
  8  7  2  0
  9 10  2  0
 10 12  1  0
 10 11  1  0
 15 14  2  0
 15 13  1  0
 15 17  1  0
 16 15  1  0
 17 18  1  0
 18 19  1  0
 18 20  1  0
 19 20  1  0
  1 21  1  0
  1 22  1  0
  2 23  1  0
  3 24  1  0
  5 25  1  0
  5 26  1  0
  6 27  1  0
  8 28  1  0
 12 29  1  0
 16 30  1  0
 18 31  1  0
 19 32  1  0
 19 33  1  0
 20 34  1  0
 20 35  1  0
M  ISO  8  21   8  22   8  25   8  26   8  27  14  28  14  29   3  30   3
M  ISO  5  31  13  32  13  33  13  34  13  35  13
M  END
>  <minimizedAffinity>  (1) 
-4.85328913

>  <minimizedRMSD>  (1) 
0.352973878

$$$$
