
     RDKit          3D

 48 50  0  0  0  0  0  0  0  0999 V2000
   44.2820   33.4030   40.9370 O   0  0  0  0  0  0  0  0  0  0  0  0
   43.0310   33.7560   40.5720 C   0  0  0  0  0  0  0  0  0  0  0  0
   42.4150   31.7360   41.8480 C   0  0  0  0  0  0  0  0  0  0  0  0
   41.9810   32.7410   40.9850 C   0  0  0  0  0  0  0  0  0  0  0  0
   40.6760   32.7340   40.5730 C   0  0  0  0  0  0  0  0  0  0  0  0
   39.9160   31.7550   41.0370 N   0  0  0  0  0  0  0  0  0  0  0  0
   40.3180   30.8050   41.8500 C   0  0  0  0  0  0  0  0  0  0  0  0
   41.6240   30.7630   42.2980 N   0  0  0  0  0  0  0  0  0  0  0  0
   39.4070   29.8010   42.2710 N   0  0  0  0  0  0  0  0  0  0  0  0
   40.2660   33.7740   39.6970 N   0  0  0  0  0  0  0  0  0  0  0  0
   40.4210   34.2210   38.3040 C   0  0  0  0  0  0  0  0  0  0  0  0
   40.9290   35.6470   38.4160 C   0  0  0  0  0  0  0  0  0  0  0  0
   40.3950   36.0620   39.7870 C   0  0  0  0  0  0  0  0  0  0  0  0
   39.4030   34.9150   40.0210 C   0  0  0  0  0  0  0  0  0  0  0  0
   45.1440   33.9810   41.8420 C   0  0  0  0  0  0  0  0  0  0  0  0
   44.5710   34.4610   42.9520 C   0  0  0  0  0  0  0  0  0  0  0  0
   45.3380   35.1370   44.0680 C   0  0  0  0  0  0  0  0  0  0  0  0
   45.1070   34.4210   45.2240 O   0  0  0  0  0  0  0  0  0  0  0  0
   45.6800   31.8670   44.6910 O   0  0  0  0  0  0  0  0  0  0  0  0
   46.1970   33.1390   45.3430 P   0  0  1  0  0  0  0  0  0  0  0  0
   47.6500   33.5410   44.5370 O   0  0  0  0  0  0  0  0  0  0  0  0
   46.5990   32.8420   46.9410 O   0  0  0  0  0  0  0  0  0  0  0  0
   45.4800   32.6010   47.7330 C   0  0  0  0  0  0  0  0  0  0  0  0
   45.7380   32.0670   49.1210 C   0  0  0  0  0  0  0  0  0  0  0  0
   45.1760   31.1610   48.0270 C   0  0  0  0  0  0  0  0  0  0  0  0
   42.7887   34.7209   41.0412 H   0  0  0  0  0  0  0  0  0  0  0  0
   43.0147   33.8161   39.4738 H   0  0  0  0  0  0  0  0  0  0  0  0
   43.4654   31.7469   42.1745 H   0  0  0  0  0  0  0  0  0  0  0  0
   39.7209   29.0554   42.9085 H   0  0  0  0  0  0  0  0  0  0  0  0
   38.4322   29.8181   41.9389 H   0  0  0  0  0  0  0  0  0  0  0  0
   39.4559   34.1925   37.7770 H   0  0  0  0  0  0  0  0  0  0  0  0
   41.1054   33.5772   37.7321 H   0  0  0  0  0  0  0  0  0  0  0  0
   42.0280   35.6843   38.3861 H   0  0  0  0  0  0  0  0  0  0  0  0
   40.6036   36.3018   37.5942 H   0  0  0  0  0  0  0  0  0  0  0  0
   41.1882   36.0821   40.5489 H   0  0  0  0  0  0  0  0  0  0  0  0
   39.9664   37.0737   39.8393 H   0  0  0  0  0  0  0  0  0  0  0  0
   38.5368   34.9783   39.3460 H   0  0  0  0  0  0  0  0  0  0  0  0
   38.9490   34.8874   41.0226 H   0  0  0  0  0  0  0  0  0  0  0  0
   46.2278   34.0438   41.6649 H   0  0  0  0  0  0  0  0  0  0  0  0
   43.4811   34.3585   43.0594 H   0  0  0  0  0  0  0  0  0  0  0  0
   46.4134   35.1395   43.8365 H   0  0  0  0  0  0  0  0  0  0  0  0
   45.0096   36.1801   44.1867 H   0  0  0  0  0  0  0  0  0  0  0  0
   48.3546   33.7359   45.2045 H   0  0  0  0  0  0  0  0  0  0  0  0
   44.9066   33.4475   47.3273 H   0  0  0  0  0  0  0  0  0  0  0  0
   46.7698   31.9287   49.4764 H   0  0  0  0  0  0  0  0  0  0  0  0
   45.4287   32.3498   50.1380 H   0  0  0  0  0  0  0  0  0  0  0  0
   44.1321   30.8180   48.0785 H   0  0  0  0  0  0  0  0  0  0  0  0
   45.4701   30.1970   47.5864 H   0  0  0  0  0  0  0  0  0  0  0  0
  1 15  1  0
  2  1  1  0
  2  4  1  0
  3  8  2  0
  4  3  1  0
  5  4  2  0
  5  6  1  0
  6  7  2  0
  7  9  1  0
  7  8  1  0
 10 14  1  0
 10  5  1  0
 11 12  1  0
 11 10  1  0
 12 13  1  0
 13 14  1  0
 15 16  2  0
 16 17  1  0
 17 18  1  0
 18 20  1  0
 20 19  2  0
 20 22  1  0
 21 20  1  0
 22 23  1  0
 23 25  1  0
 23 24  1  0
 25 24  1  0
  2 26  1  0
  2 27  1  0
  3 28  1  0
  9 29  1  0
  9 30  1  0
 11 31  1  0
 11 32  1  0
 12 33  1  0
 12 34  1  0
 13 35  1  0
 13 36  1  0
 14 37  1  0
 14 38  1  0
 15 39  1  0
 16 40  1  0
 17 41  1  0
 17 42  1  0
 21 43  1  0
 23 44  1  0
 24 45  1  0
 24 46  1  0
 25 47  1  0
 25 48  1  0
M  ISO  8  26   8  27   8  28  14  31  13  32  13  33  13  34  13  35  13
M  ISO  8  36  13  37  13  38  13  41   8  42   8  43   3  44  13  45  13
M  ISO  3  46  13  47  13  48  13
M  END
>  <minimizedAffinity>  (1) 
-5.10819006

>  <minimizedRMSD>  (1) 
2.09317636

$$$$
