
     RDKit          3D

 19 19  0  0  0  0  0  0  0  0999 V2000
   44.5930   35.2360   43.1010 C   0  0  0  0  0  0  0  0  0  0  0  0
   44.0830   35.5030   41.8160 C   0  0  0  0  0  0  0  0  0  0  0  0
   43.8630   34.4110   40.9530 C   0  0  0  0  0  0  0  0  0  0  0  0
   44.1590   33.1610   41.4150 N   0  0  0  0  0  0  0  0  0  0  0  0
   44.6520   32.9450   42.6650 C   0  0  0  0  0  0  0  0  0  0  0  0
   44.8600   33.9980   43.4890 N   0  0  0  0  0  0  0  0  0  0  0  0
   44.8150   36.3590   43.9960 C   0  0  0  0  0  0  0  0  0  0  0  0
   45.1190   37.5360   43.4940 C   0  0  0  0  0  0  0  0  0  0  0  0
   45.3590   38.7430   44.3080 C   0  0  0  0  0  0  0  0  0  0  0  0
   45.2020   39.9180   43.4490 N   0  0  0  0  0  0  0  0  0  0  0  0
   43.8631   36.5321   41.4957 H   0  0  0  0  0  0  0  0  0  0  0  0
   43.4651   34.5611   39.9385 H   0  0  0  0  0  0  0  0  0  0  0  0
   44.8795   31.9231   43.0026 H   0  0  0  0  0  0  0  0  0  0  0  0
   44.7295   36.2258   45.0846 H   0  0  0  0  0  0  0  0  0  0  0  0
   45.1992   37.6261   42.4006 H   0  0  0  0  0  0  0  0  0  0  0  0
   44.6321   38.7857   45.1325 H   0  0  0  0  0  0  0  0  0  0  0  0
   46.3737   38.7175   44.7320 H   0  0  0  0  0  0  0  0  0  0  0  0
   45.0897   40.7584   44.0339 H   0  0  0  0  0  0  0  0  0  0  0  0
   46.0365   40.0226   42.8544 H   0  0  0  0  0  0  0  0  0  0  0  0
  1  6  2  0
  1  7  1  0
  2  1  1  0
  3  4  1  0
  3  2  2  0
  4  5  2  0
  5  6  1  0
  8  7  2  0
  8  9  1  0
 10  9  1  0
  2 11  1  0
  3 12  1  0
  5 13  1  0
  7 14  1  0
  8 15  1  0
  9 16  1  0
  9 17  1  0
 10 18  1  0
 10 19  1  0
M  ISO  7  11  14  12  14  13  14  16   8  17   8  18   5  19   5
M  END
>  <minimizedAffinity>  (1) 
-2.85107946

>  <minimizedRMSD>  (1) 
0.76088804

$$$$
