
     RDKit          3D

 32 33  0  0  0  0  0  0  0  0999 V2000
   45.4590   35.4530   43.0490 C   0  0  0  0  0  0  0  0  0  0  0  0
   45.4670   34.7480   44.3830 C   0  0  0  0  0  0  0  0  0  0  0  0
   44.7300   35.0240   45.5000 C   0  0  0  0  0  0  0  0  0  0  0  0
   45.1110   34.1160   46.3850 N   0  0  0  0  0  0  0  0  0  0  0  0
   46.0420   33.2700   45.9210 C   0  0  0  0  0  0  0  0  0  0  0  0
   46.2390   33.6960   44.6690 N   0  0  0  0  0  0  0  0  0  0  0  0
   46.7100   32.1720   46.5300 N   0  0  0  0  0  0  0  0  0  0  0  0
   46.0630   31.5240   47.9930 S   0  0  0  0  0  0  0  0  0  0  0  0
   45.8660   32.6050   49.0160 O   0  0  0  0  0  0  0  0  0  0  0  0
   47.0680   30.5250   48.5240 O   0  0  0  0  0  0  0  0  0  0  0  0
   44.5730   30.7880   47.7320 O   0  0  0  0  0  0  0  0  0  0  0  0
   43.5900   35.8680   41.4960 C   0  0  0  0  0  0  0  0  0  0  0  0
   44.2580   35.0220   42.2800 C   0  0  0  0  0  0  0  0  0  0  0  0
   42.4150   35.3080   40.7930 C   0  0  0  0  0  0  0  0  0  0  0  0
   41.1240   35.8350   41.0240 C   0  0  0  0  0  0  0  0  0  0  0  0
   40.0720   35.2650   40.3380 C   0  0  0  0  0  0  0  0  0  0  0  0
   40.3060   34.2350   39.4770 N   0  0  0  0  0  0  0  0  0  0  0  0
   41.5530   33.7500   39.2750 C   0  0  0  0  0  0  0  0  0  0  0  0
   42.5860   34.2930   39.9330 N   0  0  0  0  0  0  0  0  0  0  0  0
   45.4249   36.5411   43.2071 H   0  0  0  0  0  0  0  0  0  0  0  0
   46.3705   35.1981   42.4884 H   0  0  0  0  0  0  0  0  0  0  0  0
   43.9858   35.8228   45.6341 H   0  0  0  0  0  0  0  0  0  0  0  0
   44.7283   34.0644   47.3399 H   0  0  0  0  0  0  0  0  0  0  0  0
   47.5603   31.7727   46.1077 H   0  0  0  0  0  0  0  0  0  0  0  0
   45.9367   32.2169   49.9240 H   0  0  0  0  0  0  0  0  0  0  0  0
   47.0549   30.5380   49.5138 H   0  0  0  0  0  0  0  0  0  0  0  0
   44.1509   30.5795   48.6029 H   0  0  0  0  0  0  0  0  0  0  0  0
   43.8939   36.9187   41.3788 H   0  0  0  0  0  0  0  0  0  0  0  0
   43.9142   33.9803   42.3612 H   0  0  0  0  0  0  0  0  0  0  0  0
   40.9644   36.6681   41.7243 H   0  0  0  0  0  0  0  0  0  0  0  0
   39.0485   35.6402   40.4852 H   0  0  0  0  0  0  0  0  0  0  0  0
   41.7172   32.9166   38.5761 H   0  0  0  0  0  0  0  0  0  0  0  0
  1  2  1  0
  2  6  1  0
  2  3  2  0
  3  4  1  0
  5  4  1  0
  5  7  1  0
  6  5  2  0
  7  8  1  0
  8 10  1  0
  8  9  1  0
 11  8  1  0
 12 13  2  0
 13  1  1  0
 14 15  2  0
 14 12  1  0
 16 15  1  0
 17 16  2  0
 18 17  1  0
 18 19  2  0
 19 14  1  0
  1 20  1  0
  1 21  1  0
  3 22  1  0
  4 23  1  0
  7 24  1  0
  9 25  1  0
 10 26  1  0
 11 27  1  0
 12 28  1  0
 13 29  1  0
 15 30  1  0
 16 31  1  0
 18 32  1  0
M  ISO  8  20   8  21   8  22  14  23   9  25   3  26   3  27   3  30  14
M  ISO  2  31  14  32  14
M  END
>  <minimizedAffinity>  (1) 
-5.71469021

>  <minimizedRMSD>  (1) 
8.24431515

$$$$
