
     RDKit          3D

 26 27  0  0  0  0  0  0  0  0999 V2000
   45.5390   33.2390   44.0910 C   0  0  0  0  0  0  0  0  0  0  0  0
   45.2160   34.6960   44.2790 C   0  0  0  0  0  0  0  0  0  0  0  0
   44.6530   35.2710   45.3850 C   0  0  0  0  0  0  0  0  0  0  0  0
   44.5640   36.5770   45.0680 N   0  0  0  0  0  0  0  0  0  0  0  0
   45.0390   36.8460   43.8270 C   0  0  0  0  0  0  0  0  0  0  0  0
   45.4320   35.6520   43.3770 N   0  0  0  0  0  0  0  0  0  0  0  0
   45.0850   38.1220   43.2030 N   0  0  0  0  0  0  0  0  0  0  0  0
   46.3020   31.4870   45.6350 C   0  0  0  0  0  0  0  0  0  0  0  0
   46.3320   32.7460   45.2340 C   0  0  0  0  0  0  0  0  0  0  0  0
   47.1530   31.1410   46.7870 C   0  0  0  0  0  0  0  0  0  0  0  0
   47.6780   29.8210   46.9080 C   0  0  0  0  0  0  0  0  0  0  0  0
   48.4700   29.5570   48.0050 C   0  0  0  0  0  0  0  0  0  0  0  0
   48.7080   30.5490   48.9020 N   0  0  0  0  0  0  0  0  0  0  0  0
   48.1970   31.7880   48.7590 C   0  0  0  0  0  0  0  0  0  0  0  0
   47.4350   32.0650   47.7180 N   0  0  0  0  0  0  0  0  0  0  0  0
   44.6035   32.6645   44.0219 H   0  0  0  0  0  0  0  0  0  0  0  0
   46.1223   33.1149   43.1667 H   0  0  0  0  0  0  0  0  0  0  0  0
   44.3438   34.7795   46.3192 H   0  0  0  0  0  0  0  0  0  0  0  0
   44.1773   37.2931   45.6994 H   0  0  0  0  0  0  0  0  0  0  0  0
   45.4681   38.2165   42.2516 H   0  0  0  0  0  0  0  0  0  0  0  0
   44.7353   38.9523   43.7022 H   0  0  0  0  0  0  0  0  0  0  0  0
   45.6737   30.7357   45.1342 H   0  0  0  0  0  0  0  0  0  0  0  0
   46.9749   33.4561   45.7748 H   0  0  0  0  0  0  0  0  0  0  0  0
   47.4604   29.0463   46.1580 H   0  0  0  0  0  0  0  0  0  0  0  0
   48.9033   28.5567   48.1520 H   0  0  0  0  0  0  0  0  0  0  0  0
   48.4143   32.5649   49.5069 H   0  0  0  0  0  0  0  0  0  0  0  0
  1  2  1  0
  1  9  1  0
  2  3  2  0
  4  3  1  0
  5  4  1  0
  6  5  2  0
  6  2  1  0
  7  5  1  0
  8 10  1  0
  9  8  2  0
 10 11  2  0
 10 15  1  0
 11 12  1  0
 12 13  2  0
 14 13  1  0
 15 14  2  0
  1 16  1  0
  1 17  1  0
  3 18  1  0
  4 19  1  0
  7 20  1  0
  7 21  1  0
  8 22  1  0
  9 23  1  0
 11 24  1  0
 12 25  1  0
 14 26  1  0
M  ISO  7  16   8  17   8  18  14  19   9  24  14  25  14  26  14
M  END
>  <minimizedAffinity>  (1) 
-4.09360409

>  <minimizedRMSD>  (1) 
0.35714373

$$$$
