
     RDKit          3D

 30 31  0  0  0  0  0  0  0  0999 V2000
   46.8370   34.1260   43.5340 C   0  0  0  0  0  0  0  0  0  0  0  0
   46.6330   33.3210   44.7950 C   0  0  0  0  0  0  0  0  0  0  0  0
   47.1290   32.0470   45.0400 C   0  0  0  0  0  0  0  0  0  0  0  0
   46.6950   31.7540   46.2730 N   0  0  0  0  0  0  0  0  0  0  0  0
   45.9720   32.7450   46.8040 C   0  0  0  0  0  0  0  0  0  0  0  0
   45.9420   33.7260   45.8630 N   0  0  0  0  0  0  0  0  0  0  0  0
   45.4350   32.6270   48.0790 O   0  0  0  0  0  0  0  0  0  0  0  0
   44.6780   31.3210   50.1920 O   0  0  0  0  0  0  0  0  0  0  0  0
   45.5830   31.2040   48.9740 P   0  0  0  0  0  0  0  0  0  0  0  0
   47.1620   30.8760   49.4670 O   0  0  0  0  0  0  0  0  0  0  0  0
   45.0190   29.9220   48.0340 O   0  0  0  0  0  0  0  0  0  0  0  0
   48.9930   33.7170   42.4060 C   0  0  0  0  0  0  0  0  0  0  0  0
   47.7190   33.3720   42.6070 C   0  0  0  0  0  0  0  0  0  0  0  0
   49.7600   32.8960   41.4690 C   0  0  0  0  0  0  0  0  0  0  0  0
   51.0810   32.4830   41.7590 C   0  0  0  0  0  0  0  0  0  0  0  0
   51.7530   31.7120   40.8340 C   0  0  0  0  0  0  0  0  0  0  0  0
   51.1220   31.3750   39.6760 N   0  0  0  0  0  0  0  0  0  0  0  0
   49.8670   31.7760   39.4160 C   0  0  0  0  0  0  0  0  0  0  0  0
   49.2090   32.5250   40.3090 N   0  0  0  0  0  0  0  0  0  0  0  0
   45.8649   34.3056   43.0515 H   0  0  0  0  0  0  0  0  0  0  0  0
   47.3039   35.0901   43.7840 H   0  0  0  0  0  0  0  0  0  0  0  0
   47.7396   31.4207   44.3729 H   0  0  0  0  0  0  0  0  0  0  0  0
   46.8954   30.8669   46.7564 H   0  0  0  0  0  0  0  0  0  0  0  0
   47.2038   30.8673   50.4561 H   0  0  0  0  0  0  0  0  0  0  0  0
   44.6992   29.1951   48.6251 H   0  0  0  0  0  0  0  0  0  0  0  0
   49.4446   34.5779   42.9206 H   0  0  0  0  0  0  0  0  0  0  0  0
   47.3104   32.5033   42.0700 H   0  0  0  0  0  0  0  0  0  0  0  0
   51.5634   32.7713   42.7046 H   0  0  0  0  0  0  0  0  0  0  0  0
   52.7818   31.3750   41.0287 H   0  0  0  0  0  0  0  0  0  0  0  0
   49.3811   31.4897   38.4716 H   0  0  0  0  0  0  0  0  0  0  0  0
  1  2  1  0
  2  3  2  0
  2  6  1  0
  3  4  1  0
  4  5  1  0
  5  7  1  0
  6  5  2  0
  7  9  1  0
  9 10  1  0
  9  8  2  0
 11  9  1  0
 12 13  2  0
 13  1  1  0
 14 15  2  0
 14 12  1  0
 16 15  1  0
 17 16  2  0
 18 17  1  0
 18 19  2  0
 19 14  1  0
  1 20  1  0
  1 21  1  0
  3 22  1  0
  4 23  1  0
 10 24  1  0
 11 25  1  0
 12 26  1  0
 13 27  1  0
 15 28  1  0
 16 29  1  0
 18 30  1  0
M  ISO  8  20   8  21   8  22  14  23   9  24   3  25   3  28  14  29  14
M  ISO  1  30  14
M  END
>  <minimizedAffinity>  (1) 
-4.60627413

>  <minimizedRMSD>  (1) 
7.51378822

$$$$
