
     RDKit          3D

 39 41  0  0  0  0  0  0  0  0999 V2000
   45.6700   32.9450   46.7440 C   0  0  0  0  0  0  0  0  0  0  0  0
   46.4020   32.1610   47.7840 C   0  0  0  0  0  0  0  0  0  0  0  0
   45.9340   31.8310   49.0310 C   0  0  0  0  0  0  0  0  0  0  0  0
   46.9050   31.1380   49.6250 N   0  0  0  0  0  0  0  0  0  0  0  0
   47.9680   31.0080   48.8210 C   0  0  0  0  0  0  0  0  0  0  0  0
   47.6380   31.6550   47.6690 N   0  0  0  0  0  0  0  0  0  0  0  0
   49.2280   30.3750   49.0050 N   0  0  0  0  0  0  0  0  0  0  0  0
   50.3140   31.1590   49.6140 C   0  0  0  0  0  0  0  0  0  0  0  0
   50.4090   30.6390   51.0470 C   0  0  0  0  0  0  0  0  0  0  0  0
   50.4320   29.1250   51.0520 C   0  0  0  0  0  0  0  0  0  0  0  0
   50.7570   28.6130   49.6650 C   0  0  0  0  0  0  0  0  0  0  0  0
   49.6690   29.0390   48.7050 C   0  0  0  0  0  0  0  0  0  0  0  0
   46.1280   33.8540   44.5010 C   0  0  0  0  0  0  0  0  0  0  0  0
   46.5270   33.1920   45.5730 C   0  0  0  0  0  0  0  0  0  0  0  0
   47.0940   34.0200   43.4080 C   0  0  0  0  0  0  0  0  0  0  0  0
   46.9070   34.9960   42.3970 C   0  0  0  0  0  0  0  0  0  0  0  0
   47.8680   35.0820   41.4020 C   0  0  0  0  0  0  0  0  0  0  0  0
   48.9300   34.2540   41.4240 N   0  0  0  0  0  0  0  0  0  0  0  0
   49.0890   33.3270   42.4010 C   0  0  0  0  0  0  0  0  0  0  0  0
   48.1900   33.2220   43.3620 N   0  0  0  0  0  0  0  0  0  0  0  0
   44.7807   32.3805   46.4269 H   0  0  0  0  0  0  0  0  0  0  0  0
   45.3765   33.9134   47.1754 H   0  0  0  0  0  0  0  0  0  0  0  0
   44.9523   32.0875   49.4559 H   0  0  0  0  0  0  0  0  0  0  0  0
   46.8456   30.7526   50.5783 H   0  0  0  0  0  0  0  0  0  0  0  0
   51.2600   30.9938   49.0776 H   0  0  0  0  0  0  0  0  0  0  0  0
   50.1194   32.2409   49.5753 H   0  0  0  0  0  0  0  0  0  0  0  0
   51.3315   31.0182   51.5110 H   0  0  0  0  0  0  0  0  0  0  0  0
   49.5334   30.9871   51.6146 H   0  0  0  0  0  0  0  0  0  0  0  0
   51.1973   28.7737   51.7597 H   0  0  0  0  0  0  0  0  0  0  0  0
   49.4447   28.7476   51.3566 H   0  0  0  0  0  0  0  0  0  0  0  0
   51.7204   29.0298   49.3363 H   0  0  0  0  0  0  0  0  0  0  0  0
   50.8211   27.5150   49.6841 H   0  0  0  0  0  0  0  0  0  0  0  0
   48.8175   28.3482   48.7931 H   0  0  0  0  0  0  0  0  0  0  0  0
   50.0696   29.0179   47.6808 H   0  0  0  0  0  0  0  0  0  0  0  0
   45.1102   34.2652   44.4303 H   0  0  0  0  0  0  0  0  0  0  0  0
   47.5562   32.8042   45.5912 H   0  0  0  0  0  0  0  0  0  0  0  0
   46.0308   35.6611   42.4020 H   0  0  0  0  0  0  0  0  0  0  0  0
   47.7637   35.8242   40.5969 H   0  0  0  0  0  0  0  0  0  0  0  0
   49.9662   32.6633   42.3927 H   0  0  0  0  0  0  0  0  0  0  0  0
  1  2  1  0
  2  3  2  0
  3  4  1  0
  5  7  1  0
  5  4  1  0
  6  2  1  0
  6  5  2  0
  7  8  1  0
  8  9  1  0
  9 10  1  0
 11 10  1  0
 12  7  1  0
 12 11  1  0
 13 14  2  0
 14  1  1  0
 15 13  1  0
 16 15  2  0
 17 18  2  0
 17 16  1  0
 18 19  1  0
 19 20  2  0
 20 15  1  0
  1 21  1  0
  1 22  1  0
  3 23  1  0
  4 24  1  0
  8 25  1  0
  8 26  1  0
  9 27  1  0
  9 28  1  0
 10 29  1  0
 10 30  1  0
 11 31  1  0
 11 32  1  0
 12 33  1  0
 12 34  1  0
 13 35  1  0
 14 36  1  0
 16 37  1  0
 17 38  1  0
 19 39  1  0
M  ISO  8  21   8  22   8  23  14  24   9  25  13  26  13  27  13  28  13
M  ISO  8  29  13  30  13  31  13  32  13  33  13  34  13  37  14  38  14
M  ISO  1  39  14
M  END
>  <minimizedAffinity>  (1) 
-5.45221519

>  <minimizedRMSD>  (1) 
8.87612152

$$$$
