
     RDKit          3D

 54 57  0  0  0  0  0  0  0  0999 V2000
   46.3160   32.2150   47.8620 C   0  0  0  0  0  0  0  0  0  0  0  0
   45.8610   31.7840   49.0750 C   0  0  0  0  0  0  0  0  0  0  0  0
   46.8550   31.1090   49.6440 N   0  0  0  0  0  0  0  0  0  0  0  0
   47.9290   31.0860   48.8520 C   0  0  0  0  0  0  0  0  0  0  0  0
   47.5820   31.7830   47.7360 N   0  0  0  0  0  0  0  0  0  0  0  0
   49.2170   30.5010   49.0130 N   0  0  0  0  0  0  0  0  0  0  0  0
   50.2680   31.3040   49.6560 C   0  0  0  0  0  0  0  0  0  0  0  0
   50.3840   30.7420   51.0690 C   0  0  0  0  0  0  0  0  0  0  0  0
   50.4950   29.2450   51.0170 C   0  0  0  0  0  0  0  0  0  0  0  0
   50.8320   28.7910   49.6080 C   0  0  0  0  0  0  0  0  0  0  0  0
   49.7340   29.2160   48.6570 C   0  0  0  0  0  0  0  0  0  0  0  0
   45.5640   33.0200   46.8510 C   0  0  0  0  0  0  0  0  0  0  0  0
   46.0350   34.0230   44.6550 C   0  0  0  0  0  0  0  0  0  0  0  0
   46.3430   33.1630   45.6050 C   0  0  0  0  0  0  0  0  0  0  0  0
   46.8880   34.0690   43.4660 C   0  0  0  0  0  0  0  0  0  0  0  0
   46.6800   35.0130   42.4360 C   0  0  0  0  0  0  0  0  0  0  0  0
   47.5460   34.9770   41.3430 C   0  0  0  0  0  0  0  0  0  0  0  0
   48.5360   34.0560   41.3100 N   0  0  0  0  0  0  0  0  0  0  0  0
   48.7080   33.1700   42.3080 C   0  0  0  0  0  0  0  0  0  0  0  0
   47.9090   33.1700   43.3600 N   0  0  0  0  0  0  0  0  0  0  0  0
   49.7750   32.2190   42.2130 N   0  0  0  0  0  0  0  0  0  0  0  0
   49.5470   30.8230   42.5360 C   0  0  0  0  0  0  0  0  0  0  0  0
   49.9780   30.0180   41.3260 C   0  0  0  0  0  0  0  0  0  0  0  0
   51.4620   30.2390   41.1260 C   0  0  0  0  0  0  0  0  0  0  0  0
   51.7760   31.6940   40.8610 C   0  0  0  0  0  0  0  0  0  0  0  0
   51.0920   32.6350   41.7950 C   0  0  0  0  0  0  0  0  0  0  0  0
   44.8622   31.9615   49.5004 H   0  0  0  0  0  0  0  0  0  0  0  0
   46.8032   30.6637   50.5713 H   0  0  0  0  0  0  0  0  0  0  0  0
   51.2211   31.1962   49.1174 H   0  0  0  0  0  0  0  0  0  0  0  0
   50.0265   32.3772   49.6563 H   0  0  0  0  0  0  0  0  0  0  0  0
   51.2796   31.1574   51.5542 H   0  0  0  0  0  0  0  0  0  0  0  0
   49.4875   31.0186   51.6432 H   0  0  0  0  0  0  0  0  0  0  0  0
   51.2885   28.9157   51.7040 H   0  0  0  0  0  0  0  0  0  0  0  0
   49.5323   28.8039   51.3147 H   0  0  0  0  0  0  0  0  0  0  0  0
   51.7830   29.2466   49.2950 H   0  0  0  0  0  0  0  0  0  0  0  0
   50.9234   27.6949   49.5913 H   0  0  0  0  0  0  0  0  0  0  0  0
   48.9196   28.4775   48.6947 H   0  0  0  0  0  0  0  0  0  0  0  0
   50.1532   29.2757   47.6418 H   0  0  0  0  0  0  0  0  0  0  0  0
   44.6127   32.5161   46.6250 H   0  0  0  0  0  0  0  0  0  0  0  0
   45.3795   34.0216   47.2666 H   0  0  0  0  0  0  0  0  0  0  0  0
   45.1630   34.6864   44.7525 H   0  0  0  0  0  0  0  0  0  0  0  0
   47.2240   32.5200   45.4625 H   0  0  0  0  0  0  0  0  0  0  0  0
   45.8650   35.7495   42.4937 H   0  0  0  0  0  0  0  0  0  0  0  0
   47.4248   35.6913   40.5153 H   0  0  0  0  0  0  0  0  0  0  0  0
   50.1433   30.5352   43.4144 H   0  0  0  0  0  0  0  0  0  0  0  0
   48.4889   30.6407   42.7751 H   0  0  0  0  0  0  0  0  0  0  0  0
   49.7788   28.9498   41.4972 H   0  0  0  0  0  0  0  0  0  0  0  0
   49.4190   30.3371   40.4340 H   0  0  0  0  0  0  0  0  0  0  0  0
   51.9963   29.9176   42.0322 H   0  0  0  0  0  0  0  0  0  0  0  0
   51.7831   29.6525   40.2525 H   0  0  0  0  0  0  0  0  0  0  0  0
   52.8623   31.8379   40.9569 H   0  0  0  0  0  0  0  0  0  0  0  0
   51.4100   31.9227   39.8492 H   0  0  0  0  0  0  0  0  0  0  0  0
   51.7184   32.7424   42.6928 H   0  0  0  0  0  0  0  0  0  0  0  0
   50.9597   33.5779   41.2442 H   0  0  0  0  0  0  0  0  0  0  0  0
  1  2  2  0
  2  3  1  0
  4  6  1  0
  4  3  1  0
  5  1  1  0
  5  4  2  0
  6  7  1  0
  7  8  1  0
  9  8  1  0
 10  9  1  0
 11  6  1  0
 11 10  1  0
 12  1  1  0
 13 14  2  0
 14 12  1  0
 15 13  1  0
 16 15  2  0
 17 16  1  0
 18 17  2  0
 18 19  1  0
 19 20  2  0
 20 15  1  0
 21 19  1  0
 21 22  1  0
 23 22  1  0
 24 23  1  0
 25 24  1  0
 25 26  1  0
 26 21  1  0
  2 27  1  0
  3 28  1  0
  7 29  1  0
  7 30  1  0
  8 31  1  0
  8 32  1  0
  9 33  1  0
  9 34  1  0
 10 35  1  0
 10 36  1  0
 11 37  1  0
 11 38  1  0
 12 39  1  0
 12 40  1  0
 13 41  1  0
 14 42  1  0
 16 43  1  0
 17 44  1  0
 22 45  1  0
 22 46  1  0
 23 47  1  0
 23 48  1  0
 24 49  1  0
 24 50  1  0
 25 51  1  0
 25 52  1  0
 26 53  1  0
 26 54  1  0
M  ISO  8  27  14  28   9  29  13  30  13  31  13  32  13  33  13  34  13
M  ISO  8  35  13  36  13  37  13  38  13  39   8  40   8  43  14  44  14
M  ISO  8  45  13  46  13  47  13  48  13  49  13  50  13  51  13  52  13
M  ISO  2  53  13  54  13
M  END
>  <minimizedAffinity>  (1) 
-6.34315538

>  <minimizedRMSD>  (1) 
0.417957962

$$$$
