
     RDKit          3D

 46 49  0  0  0  0  0  0  0  0999 V2000
   46.3490   32.2030   47.8190 C   0  0  0  0  0  0  0  0  0  0  0  0
   45.8960   31.7930   49.0330 C   0  0  0  0  0  0  0  0  0  0  0  0
   46.8900   31.1140   49.6110 N   0  0  0  0  0  0  0  0  0  0  0  0
   47.9640   31.0750   48.8110 C   0  0  0  0  0  0  0  0  0  0  0  0
   47.6070   31.7600   47.6970 N   0  0  0  0  0  0  0  0  0  0  0  0
   49.2400   30.4820   48.9790 N   0  0  0  0  0  0  0  0  0  0  0  0
   50.2950   31.2670   49.6110 C   0  0  0  0  0  0  0  0  0  0  0  0
   50.4070   30.6980   51.0250 C   0  0  0  0  0  0  0  0  0  0  0  0
   50.4890   29.1910   50.9750 C   0  0  0  0  0  0  0  0  0  0  0  0
   50.8370   28.7490   49.5750 C   0  0  0  0  0  0  0  0  0  0  0  0
   49.7310   29.1670   48.6240 C   0  0  0  0  0  0  0  0  0  0  0  0
   45.6040   32.9980   46.8010 C   0  0  0  0  0  0  0  0  0  0  0  0
   46.0190   33.9340   44.5600 C   0  0  0  0  0  0  0  0  0  0  0  0
   46.4110   33.1880   45.5810 C   0  0  0  0  0  0  0  0  0  0  0  0
   46.9180   34.0380   43.4090 C   0  0  0  0  0  0  0  0  0  0  0  0
   46.7490   35.0630   42.4380 C   0  0  0  0  0  0  0  0  0  0  0  0
   47.6480   35.0850   41.3820 C   0  0  0  0  0  0  0  0  0  0  0  0
   48.6260   34.1560   41.3150 N   0  0  0  0  0  0  0  0  0  0  0  0
   48.7610   33.1920   42.2550 C   0  0  0  0  0  0  0  0  0  0  0  0
   47.9290   33.1370   43.2750 N   0  0  0  0  0  0  0  0  0  0  0  0
   49.8640   32.2600   42.0490 C   0  0  0  0  0  0  0  0  0  0  0  0
   49.8640   31.0480   42.7430 C   0  0  0  0  0  0  0  0  0  0  0  0
   51.0090   30.3630   42.3670 C   0  0  0  0  0  0  0  0  0  0  0  0
   51.6420   31.2080   41.4580 C   0  0  0  0  0  0  0  0  0  0  0  0
   50.9310   32.3210   41.2970 O   0  0  0  0  0  0  0  0  0  0  0  0
   44.8998   31.9842   49.4586 H   0  0  0  0  0  0  0  0  0  0  0  0
   46.8382   30.6799   50.5436 H   0  0  0  0  0  0  0  0  0  0  0  0
   51.2447   31.1485   49.0687 H   0  0  0  0  0  0  0  0  0  0  0  0
   50.0692   32.3436   49.6120 H   0  0  0  0  0  0  0  0  0  0  0  0
   51.3128   31.0955   51.5061 H   0  0  0  0  0  0  0  0  0  0  0  0
   49.5169   30.9904   51.6014 H   0  0  0  0  0  0  0  0  0  0  0  0
   51.2655   28.8433   51.6723 H   0  0  0  0  0  0  0  0  0  0  0  0
   49.5174   28.7627   51.2623 H   0  0  0  0  0  0  0  0  0  0  0  0
   51.7828   29.2183   49.2666 H   0  0  0  0  0  0  0  0  0  0  0  0
   50.9466   27.6547   49.5522 H   0  0  0  0  0  0  0  0  0  0  0  0
   48.9059   28.4420   48.6845 H   0  0  0  0  0  0  0  0  0  0  0  0
   50.1294   29.1961   47.5991 H   0  0  0  0  0  0  0  0  0  0  0  0
   44.6766   32.4676   46.5393 H   0  0  0  0  0  0  0  0  0  0  0  0
   45.3770   33.9863   47.2272 H   0  0  0  0  0  0  0  0  0  0  0  0
   45.0517   34.4574   44.5758 H   0  0  0  0  0  0  0  0  0  0  0  0
   47.3870   32.6848   45.5163 H   0  0  0  0  0  0  0  0  0  0  0  0
   45.9414   35.8053   42.5206 H   0  0  0  0  0  0  0  0  0  0  0  0
   47.5647   35.8562   40.6020 H   0  0  0  0  0  0  0  0  0  0  0  0
   49.0994   30.7021   43.4541 H   0  0  0  0  0  0  0  0  0  0  0  0
   51.3433   29.3728   42.7100 H   0  0  0  0  0  0  0  0  0  0  0  0
   52.5912   30.9872   40.9478 H   0  0  0  0  0  0  0  0  0  0  0  0
  1  2  2  0
  2  3  1  0
  4  6  1  0
  4  3  1  0
  5  1  1  0
  5  4  2  0
  6  7  1  0
  7  8  1  0
  9  8  1  0
 10  9  1  0
 11  6  1  0
 11 10  1  0
 12  1  1  0
 13 14  2  0
 14 12  1  0
 15 13  1  0
 16 15  2  0
 17 16  1  0
 18 17  2  0
 18 19  1  0
 19 20  2  0
 20 15  1  0
 21 19  1  0
 21 22  2  0
 23 22  1  0
 24 23  2  0
 25 24  1  0
 25 21  1  0
  2 26  1  0
  3 27  1  0
  7 28  1  0
  7 29  1  0
  8 30  1  0
  8 31  1  0
  9 32  1  0
  9 33  1  0
 10 34  1  0
 10 35  1  0
 11 36  1  0
 11 37  1  0
 12 38  1  0
 12 39  1  0
 13 40  1  0
 14 41  1  0
 16 42  1  0
 17 43  1  0
 22 44  1  0
 23 45  1  0
 24 46  1  0
M  ISO  8  26  14  27   9  28  13  29  13  30  13  31  13  32  13  33  13
M  ISO  8  34  13  35  13  36  13  37  13  38   8  39   8  42  14  43  14
M  ISO  3  44  14  45  14  46  14
M  END
>  <minimizedAffinity>  (1) 
-5.92868996

>  <minimizedRMSD>  (1) 
0.434025437

$$$$
