
     RDKit          3D

 20 21  0  0  0  0  0  0  0  0999 V2000
   48.3870   34.3180   42.1550 C   0  0  0  0  0  0  0  0  0  0  0  0
   48.9320   33.0860   41.7850 C   0  0  0  0  0  0  0  0  0  0  0  0
   48.6050   31.9770   42.5760 C   0  0  0  0  0  0  0  0  0  0  0  0
   47.7890   32.1620   43.6440 N   0  0  0  0  0  0  0  0  0  0  0  0
   47.2850   33.3810   43.9620 C   0  0  0  0  0  0  0  0  0  0  0  0
   47.5880   34.4590   43.2110 N   0  0  0  0  0  0  0  0  0  0  0  0
   46.4180   33.4560   45.1350 C   0  0  0  0  0  0  0  0  0  0  0  0
   46.6520   32.5240   46.1250 C   0  0  0  0  0  0  0  0  0  0  0  0
   45.7150   32.7870   47.1320 C   0  0  0  0  0  0  0  0  0  0  0  0
   44.9660   33.8490   46.7160 N   0  0  0  0  0  0  0  0  0  0  0  0
   45.3940   34.2400   45.5250 N   0  0  0  0  0  0  0  0  0  0  0  0
   48.7430   35.4980   41.3010 C   0  0  0  0  0  0  0  0  0  0  0  0
   49.5905   32.9907   40.9090 H   0  0  0  0  0  0  0  0  0  0  0  0
   49.0008   30.9790   42.3367 H   0  0  0  0  0  0  0  0  0  0  0  0
   47.4185   31.7350   46.1236 H   0  0  0  0  0  0  0  0  0  0  0  0
   45.6037   32.2403   48.0800 H   0  0  0  0  0  0  0  0  0  0  0  0
   44.1921   34.2777   47.2434 H   0  0  0  0  0  0  0  0  0  0  0  0
   49.0007   36.3520   41.9446 H   0  0  0  0  0  0  0  0  0  0  0  0
   49.6046   35.2444   40.6659 H   0  0  0  0  0  0  0  0  0  0  0  0
   47.8849   35.7632   40.6659 H   0  0  0  0  0  0  0  0  0  0  0  0
  1  6  2  0
  2  1  1  0
  2  3  2  0
  3  4  1  0
  4  5  2  0
  5  7  1  0
  6  5  1  0
  7 11  2  0
  7  8  1  0
  8  9  2  0
 10  9  1  0
 11 10  1  0
 12  1  1  0
  2 13  1  0
  3 14  1  0
  8 15  1  0
  9 16  1  0
 10 17  1  0
 12 18  1  0
 12 19  1  0
 12 20  1  0
M  ISO  8  13  14  14  14  15  14  16  14  17   9  18   8  19   8  20   8
M  END
>  <minimizedAffinity>  (1) 
-4.1339798

>  <minimizedRMSD>  (1) 
3.07280397

$$$$
