
     RDKit          3D

 25 26  0  0  0  0  0  0  0  0999 V2000
   45.3700   34.7240   44.7610 C   0  0  0  0  0  0  0  0  0  0  0  0
   46.2010   34.4260   43.6850 C   0  0  0  0  0  0  0  0  0  0  0  0
   47.0700   33.3290   43.7990 C   0  0  0  0  0  0  0  0  0  0  0  0
   47.0420   32.6260   44.9640 N   0  0  0  0  0  0  0  0  0  0  0  0
   46.2190   32.9470   45.9860 C   0  0  0  0  0  0  0  0  0  0  0  0
   45.3750   34.0030   45.8890 N   0  0  0  0  0  0  0  0  0  0  0  0
   46.2570   32.1550   47.1670 N   0  0  0  0  0  0  0  0  0  0  0  0
   45.0960   31.6760   47.8760 C   0  0  0  0  0  0  0  0  0  0  0  0
   45.6870   30.6540   48.8270 C   0  0  0  0  0  0  0  0  0  0  0  0
   46.9640   31.3980   49.2360 C   0  0  0  0  0  0  0  0  0  0  0  0
   47.4860   31.7110   47.8330 C   0  0  0  0  0  0  0  0  0  0  0  0
   44.4440   35.9010   44.6240 C   0  0  0  0  0  0  0  0  0  0  0  0
   46.1776   35.0343   42.7688 H   0  0  0  0  0  0  0  0  0  0  0  0
   47.7471   33.0487   42.9786 H   0  0  0  0  0  0  0  0  0  0  0  0
   44.6023   32.4909   48.4257 H   0  0  0  0  0  0  0  0  0  0  0  0
   44.3204   31.2614   47.2153 H   0  0  0  0  0  0  0  0  0  0  0  0
   45.0285   30.4653   49.6877 H   0  0  0  0  0  0  0  0  0  0  0  0
   45.8449   29.6528   48.3995 H   0  0  0  0  0  0  0  0  0  0  0  0
   46.7486   32.3092   49.8134 H   0  0  0  0  0  0  0  0  0  0  0  0
   47.6521   30.8495   49.8960 H   0  0  0  0  0  0  0  0  0  0  0  0
   47.9062   30.8165   47.3499 H   0  0  0  0  0  0  0  0  0  0  0  0
   48.3047   32.4453   47.8082 H   0  0  0  0  0  0  0  0  0  0  0  0
   44.1598   36.2622   45.6234 H   0  0  0  0  0  0  0  0  0  0  0  0
   44.9533   36.7062   44.0742 H   0  0  0  0  0  0  0  0  0  0  0  0
   43.5416   35.5955   44.0742 H   0  0  0  0  0  0  0  0  0  0  0  0
  1  6  2  0
  2  3  2  0
  2  1  1  0
  3  4  1  0
  4  5  2  0
  5  7  1  0
  6  5  1  0
  7 11  1  0
  7  8  1  0
  8  9  1  0
  9 10  1  0
 11 10  1  0
 12  1  1  0
  2 13  1  0
  3 14  1  0
  8 15  1  0
  8 16  1  0
  9 17  1  0
  9 18  1  0
 10 19  1  0
 10 20  1  0
 11 21  1  0
 11 22  1  0
 12 23  1  0
 12 24  1  0
 12 25  1  0
M  ISO  8  13  14  14  14  15  13  16  13  17  13  18  13  19  13  20  13
M  ISO  5  21  13  22  13  23   8  24   8  25   8
M  END
>  <minimizedAffinity>  (1) 
-4.18581533

>  <minimizedRMSD>  (1) 
1.9515506

$$$$
