
     RDKit          3D

 15 15  0  0  0  0  0  0  0  0999 V2000
   45.3660   35.0970   44.0760 C   0  0  0  0  0  0  0  0  0  0  0  0
   46.3820   34.2120   43.7210 C   0  0  0  0  0  0  0  0  0  0  0  0
   46.7930   33.2570   44.6540 C   0  0  0  0  0  0  0  0  0  0  0  0
   46.1770   33.2460   45.8590 N   0  0  0  0  0  0  0  0  0  0  0  0
   45.1930   34.1230   46.1670 C   0  0  0  0  0  0  0  0  0  0  0  0
   44.7720   35.0600   45.2830 N   0  0  0  0  0  0  0  0  0  0  0  0
   44.5180   34.1480   47.4200 N   0  0  0  0  0  0  0  0  0  0  0  0
   44.9350   36.1130   43.0690 C   0  0  0  0  0  0  0  0  0  0  0  0
   46.8505   34.2642   42.7271 H   0  0  0  0  0  0  0  0  0  0  0  0
   47.5909   32.5378   44.4171 H   0  0  0  0  0  0  0  0  0  0  0  0
   43.7766   34.8421   47.5918 H   0  0  0  0  0  0  0  0  0  0  0  0
   44.7709   33.4720   48.1548 H   0  0  0  0  0  0  0  0  0  0  0  0
   44.5562   37.0059   43.5880 H   0  0  0  0  0  0  0  0  0  0  0  0
   45.7925   36.3913   42.4388 H   0  0  0  0  0  0  0  0  0  0  0  0
   44.1389   35.6898   42.4388 H   0  0  0  0  0  0  0  0  0  0  0  0
  1  6  2  0
  2  1  1  0
  2  3  2  0
  3  4  1  0
  4  5  2  0
  5  7  1  0
  6  5  1  0
  8  1  1  0
  2  9  1  0
  3 10  1  0
  7 11  1  0
  7 12  1  0
  8 13  1  0
  8 14  1  0
  8 15  1  0
M  ISO  5   9  14  10  14  13   8  14   8  15   8
M  END
>  <minimizedAffinity>  (1) 
-3.72569156

>  <minimizedRMSD>  (1) 
0.333445489

$$$$
