
     RDKit          3D

 27 28  0  0  0  0  0  0  0  0999 V2000
   47.3160   33.1630   43.2410 C   0  0  0  0  0  0  0  0  0  0  0  0
   46.8870   33.3440   44.5640 C   0  0  0  0  0  0  0  0  0  0  0  0
   45.6190   33.9430   44.7680 C   0  0  0  0  0  0  0  0  0  0  0  0
   44.9070   34.2980   43.6610 N   0  0  0  0  0  0  0  0  0  0  0  0
   45.3750   34.0970   42.4080 C   0  0  0  0  0  0  0  0  0  0  0  0
   46.5750   33.5310   42.1960 N   0  0  0  0  0  0  0  0  0  0  0  0
   44.5420   34.5110   41.3140 N   0  0  0  0  0  0  0  0  0  0  0  0
   43.6600   35.6360   41.5370 C   0  0  0  0  0  0  0  0  0  0  0  0
   42.3870   35.3960   40.7820 C   0  0  0  0  0  0  0  0  0  0  0  0
   42.6770   35.1150   39.3940 N   0  0  0  0  0  0  0  0  0  0  0  0
   43.3640   33.8530   39.2590 C   0  0  0  0  0  0  0  0  0  0  0  0
   44.6310   33.7860   40.0690 C   0  0  0  0  0  0  0  0  0  0  0  0
   48.6570   32.5300   43.0650 C   0  0  0  0  0  0  0  0  0  0  0  0
   47.5127   33.0320   45.4132 H   0  0  0  0  0  0  0  0  0  0  0  0
   45.2246   34.1148   45.7804 H   0  0  0  0  0  0  0  0  0  0  0  0
   43.4427   35.7305   42.6112 H   0  0  0  0  0  0  0  0  0  0  0  0
   44.1364   36.5646   41.1894 H   0  0  0  0  0  0  0  0  0  0  0  0
   41.8583   34.5385   41.2238 H   0  0  0  0  0  0  0  0  0  0  0  0
   41.7577   36.2961   40.8428 H   0  0  0  0  0  0  0  0  0  0  0  0
   41.7937   35.0768   38.8656 H   0  0  0  0  0  0  0  0  0  0  0  0
   42.6910   33.0496   39.5930 H   0  0  0  0  0  0  0  0  0  0  0  0
   43.6425   33.7404   38.2008 H   0  0  0  0  0  0  0  0  0  0  0  0
   44.8493   32.7312   40.2921 H   0  0  0  0  0  0  0  0  0  0  0  0
   45.4287   34.2524   39.4723 H   0  0  0  0  0  0  0  0  0  0  0  0
   49.0968   32.3224   44.0516 H   0  0  0  0  0  0  0  0  0  0  0  0
   48.5476   31.5885   42.5069 H   0  0  0  0  0  0  0  0  0  0  0  0
   49.3144   33.2129   42.5069 H   0  0  0  0  0  0  0  0  0  0  0  0
  1  2  2  0
  2  3  1  0
  4  3  2  0
  5  4  1  0
  6  5  2  0
  6  1  1  0
  7  8  1  0
  7  5  1  0
  9  8  1  0
 10  9  1  0
 11 10  1  0
 11 12  1  0
 12  7  1  0
 13  1  1  0
  2 14  1  0
  3 15  1  0
  8 16  1  0
  8 17  1  0
  9 18  1  0
  9 19  1  0
 10 20  1  0
 11 21  1  0
 11 22  1  0
 12 23  1  0
 12 24  1  0
 13 25  1  0
 13 26  1  0
 13 27  1  0
M  ISO  8  14  14  15  14  16  13  17  13  18  13  19  13  20   5  21  13
M  ISO  6  22  13  23  13  24  13  25   8  26   8  27   8
M  END
>  <minimizedAffinity>  (1) 
-3.54463768

>  <minimizedRMSD>  (1) 
6.29605579

$$$$
