
     RDKit          3D

 46 50  0  0  1  0  0  0  0  0999 V2000
   48.1660   33.2360   42.4090 C   0  0  2  0  0  0  0  0  0  0  0  0
   49.4170   33.9640   42.6970 C   0  0  0  0  0  0  0  0  0  0  0  0
   49.3450   35.4260   42.3520 C   0  0  0  0  0  0  0  0  0  0  0  0
   48.9650   35.6410   40.8970 C   0  0  0  0  0  0  0  0  0  0  0  0
   47.8720   34.7170   40.4230 C   0  0  0  0  0  0  0  0  0  0  0  0
   47.1760   34.0460   41.5780 C   0  0  1  0  0  0  0  0  0  0  0  0
   47.4670   32.8010   43.6370 C   0  0  0  0  0  0  0  0  0  0  0  0
   46.7910   33.8060   44.3560 C   0  0  0  0  0  0  0  0  0  0  0  0
   46.1010   33.4720   45.5220 C   0  0  0  0  0  0  0  0  0  0  0  0
   46.1390   32.1400   45.8890 N   0  0  0  0  0  0  0  0  0  0  0  0
   46.7880   31.2020   45.1890 C   0  0  0  0  0  0  0  0  0  0  0  0
   47.4530   31.5370   44.0620 N   0  0  0  0  0  0  0  0  0  0  0  0
   46.1470   33.0770   41.0590 C   0  0  0  0  0  0  0  0  0  0  0  0
   44.7980   33.6380   40.9010 C   0  0  0  0  0  0  0  0  0  0  0  0
   44.1860   33.3820   39.7770 C   0  0  0  0  0  0  0  0  0  0  0  0
   42.8780   33.8830   39.5330 N   0  0  0  0  0  0  0  0  0  0  0  0
   41.5870   33.7500   38.9560 C   0  0  1  0  0  0  0  0  0  0  0  0
   41.1640   33.1840   37.9040 O   0  0  0  0  0  0  0  0  0  0  0  0
   41.0280   34.5160   40.0690 C   0  0  0  0  0  0  0  0  0  0  0  0
   42.4040   35.1520   40.0310 C   0  0  2  0  0  0  0  0  0  0  0  0
   42.9380   35.5030   41.7030 S   0  0  0  0  0  0  0  0  0  0  0  0
   44.3080   34.4080   42.0290 C   0  0  0  0  0  0  0  0  0  0  0  0
   44.7740   32.5890   38.7060 C   0  0  0  0  0  0  0  0  0  0  0  0
   44.8360   32.9660   37.4850 O   0  0  0  0  0  0  0  0  0  0  0  0
   45.3850   31.5890   38.0090 O   0  0  0  0  0  0  0  0  0  0  0  0
   48.4951   32.3595   41.8316 H   0  0  0  0  0  0  0  0  0  0  0  0
   49.6377   33.8686   43.7704 H   0  0  0  0  0  0  0  0  0  0  0  0
   50.2052   33.5192   42.0718 H   0  0  0  0  0  0  0  0  0  0  0  0
   48.5909   35.9068   42.9924 H   0  0  0  0  0  0  0  0  0  0  0  0
   50.3394   35.8667   42.5158 H   0  0  0  0  0  0  0  0  0  0  0  0
   48.6217   36.6790   40.7756 H   0  0  0  0  0  0  0  0  0  0  0  0
   49.8582   35.4262   40.2920 H   0  0  0  0  0  0  0  0  0  0  0  0
   47.1347   35.2995   39.8511 H   0  0  0  0  0  0  0  0  0  0  0  0
   48.3278   33.9373   39.7950 H   0  0  0  0  0  0  0  0  0  0  0  0
   46.7137   34.8341   42.1906 H   0  0  0  0  0  0  0  0  0  0  0  0
   46.8069   34.8470   44.0008 H   0  0  0  0  0  0  0  0  0  0  0  0
   45.5590   34.2242   46.1140 H   0  0  0  0  0  0  0  0  0  0  0  0
   46.7799   30.1568   45.5319 H   0  0  0  0  0  0  0  0  0  0  0  0
   46.4838   32.7133   40.0770 H   0  0  0  0  0  0  0  0  0  0  0  0
   46.0648   32.2792   41.8118 H   0  0  0  0  0  0  0  0  0  0  0  0
   40.5900   32.4160   38.1505 H   0  0  0  0  0  0  0  0  0  0  0  0
   40.1852   35.1782   39.8216 H   0  0  0  0  0  0  0  0  0  0  0  0
   40.5645   34.0755   40.9641 H   0  0  0  0  0  0  0  0  0  0  0  0
   43.9917   33.6980   42.8074 H   0  0  0  0  0  0  0  0  0  0  0  0
   45.1425   35.0617   42.3226 H   0  0  0  0  0  0  0  0  0  0  0  0
   45.5345   31.6843   37.0350 H   0  0  0  0  0  0  0  0  0  0  0  0
  1  2  1  0
  1  7  1  0
  3  2  1  0
  4  3  1  0
  5  4  1  0
  5  6  1  0
  6  1  1  0
  7 12  1  0
  7  8  2  0
  8  9  1  0
  9 10  2  0
 11 10  1  0
 12 11  2  0
 13  6  1  0
 14 13  1  0
 14 22  1  0
 15 14  2  0
 16 15  1  0
 16 20  1  0
 17 18  1  6
 17 16  1  0
 17 20  1  0
 17 19  1  0
 20 19  1  0
 20 21  1  6
 21 22  1  0
 23 15  1  0
 24 23  2  0
 25 23  1  0
  1 26  1  6
  2 27  1  0
  2 28  1  0
  3 29  1  0
  3 30  1  0
  4 31  1  0
  4 32  1  0
  5 33  1  0
  5 34  1  0
  6 35  1  1
  8 36  1  0
  9 37  1  0
 11 38  1  0
 13 39  1  0
 13 40  1  0
 18 41  1  0
 19 42  1  0
 19 43  1  0
 22 44  1  0
 22 45  1  0
 25 46  1  0
M  ISO  8  26  13  27  13  28  13  29  13  30  13  31  13  32  13  33  13
M  ISO  8  34  13  35  13  36  14  37  14  38  14  39   8  40   8  41   3
M  ISO  5  42  13  43  13  44  13  45  13  46   3
M  END
>  <minimizedAffinity>  (1) 
-5.68644381

>  <minimizedRMSD>  (1) 
6.3095336

$$$$
