
     RDKit          3D

 34 35  0  0  0  0  0  0  0  0999 V2000
   45.8160   32.5930   47.6170 O   0  0  0  0  0  0  0  0  0  0  0  0
   45.2970   34.7110   44.7310 C   0  0  0  0  0  0  0  0  0  0  0  0
   46.2460   34.2060   43.8550 C   0  0  0  0  0  0  0  0  0  0  0  0
   47.0410   33.1350   44.3030 C   0  0  0  0  0  0  0  0  0  0  0  0
   46.8450   32.6600   45.5420 N   0  0  0  0  0  0  0  0  0  0  0  0
   45.8980   33.1920   46.3670 C   0  0  0  0  0  0  0  0  0  0  0  0
   45.1320   34.2180   45.9450 N   0  0  0  0  0  0  0  0  0  0  0  0
   44.4520   35.8490   44.2550 C   0  0  0  0  0  0  0  0  0  0  0  0
   45.5180   30.7710   49.4130 O   0  0  0  0  0  0  0  0  0  0  0  0
   45.7480   30.9420   47.9140 P   0  0  1  0  0  0  0  0  0  0  0  0
   44.4530   30.1750   47.1460 O   0  0  0  0  0  0  0  0  0  0  0  0
   47.1710   30.1970   47.4420 O   0  0  0  0  0  0  0  0  0  0  0  0
   49.6420   29.8890   50.4410 N   0  0  0  0  0  0  0  0  0  0  0  0
   49.6260   31.2360   49.9860 C   0  0  0  0  0  0  0  0  0  0  0  0
   48.7520   31.4850   48.7720 C   0  0  0  0  0  0  0  0  0  0  0  0
   48.1630   30.1670   48.3770 C   0  0  0  0  0  0  0  0  0  0  0  0
   49.2990   29.2280   48.1000 C   0  0  0  0  0  0  0  0  0  0  0  0
   49.9000   28.8830   49.4700 C   0  0  0  0  0  0  0  0  0  0  0  0
   46.3726   34.6273   42.8468 H   0  0  0  0  0  0  0  0  0  0  0  0
   47.8089   32.6955   43.6494 H   0  0  0  0  0  0  0  0  0  0  0  0
   44.0480   36.3931   45.1214 H   0  0  0  0  0  0  0  0  0  0  0  0
   45.0643   36.5310   43.6467 H   0  0  0  0  0  0  0  0  0  0  0  0
   43.6221   35.4601   43.6467 H   0  0  0  0  0  0  0  0  0  0  0  0
   43.8351   29.8090   47.8274 H   0  0  0  0  0  0  0  0  0  0  0  0
   50.3695   29.8146   51.1664 H   0  0  0  0  0  0  0  0  0  0  0  0
   49.2608   31.8705   50.8070 H   0  0  0  0  0  0  0  0  0  0  0  0
   50.6559   31.4728   49.6809 H   0  0  0  0  0  0  0  0  0  0  0  0
   47.9513   32.1963   49.0228 H   0  0  0  0  0  0  0  0  0  0  0  0
   49.3399   31.9144   47.9474 H   0  0  0  0  0  0  0  0  0  0  0  0
   47.5731   29.7819   49.2218 H   0  0  0  0  0  0  0  0  0  0  0  0
   48.9314   28.3182   47.6029 H   0  0  0  0  0  0  0  0  0  0  0  0
   50.0463   29.6823   47.4328 H   0  0  0  0  0  0  0  0  0  0  0  0
   49.4647   27.9349   49.8186 H   0  0  0  0  0  0  0  0  0  0  0  0
   50.9904   28.8038   49.3489 H   0  0  0  0  0  0  0  0  0  0  0  0
  1 10  1  0
  2  7  2  0
  3  4  2  0
  3  2  1  0
  4  5  1  0
  5  6  2  0
  6  1  1  0
  7  6  1  0
  8  2  1  0
 10  9  2  0
 11 10  1  0
 12 10  1  0
 12 16  1  0
 14 13  1  0
 15 14  1  0
 16 15  1  0
 17 16  1  0
 17 18  1  0
 18 13  1  0
  3 19  1  0
  4 20  1  0
  8 21  1  0
  8 22  1  0
  8 23  1  0
 11 24  1  0
 13 25  1  0
 14 26  1  0
 14 27  1  0
 15 28  1  0
 15 29  1  0
 16 30  1  0
 17 31  1  0
 17 32  1  0
 18 33  1  0
 18 34  1  0
M  ISO  8  19  14  20  14  21   8  22   8  23   8  24   3  25   5  26  13
M  ISO  8  27  13  28  13  29  13  30  13  31  13  32  13  33  13  34  13
M  END
>  <minimizedAffinity>  (1) 
-4.9860239

>  <minimizedRMSD>  (1) 
0.957741141

$$$$
