
     RDKit          3D

 21 21  0  0  0  0  0  0  0  0999 V2000
   45.5020   34.9110   44.1430 C   0  0  0  0  0  0  0  0  0  0  0  0
   46.5270   34.2350   43.4960 C   0  0  0  0  0  0  0  0  0  0  0  0
   47.1460   33.1660   44.1400 C   0  0  0  0  0  0  0  0  0  0  0  0
   46.6900   32.8560   45.3810 N   0  0  0  0  0  0  0  0  0  0  0  0
   45.6930   33.5330   45.9770 C   0  0  0  0  0  0  0  0  0  0  0  0
   45.0840   34.5830   45.3490 N   0  0  0  0  0  0  0  0  0  0  0  0
   44.8860   36.0640   43.4040 C   0  0  0  0  0  0  0  0  0  0  0  0
   45.3450   33.0870   47.2500 O   0  0  0  0  0  0  0  0  0  0  0  0
   45.4170   31.7380   49.4410 O   0  0  0  0  0  0  0  0  0  0  0  0
   46.1830   31.9310   48.1350 P   0  0  1  0  0  0  0  0  0  0  0  0
   46.2700   30.4100   47.4000 O   0  0  0  0  0  0  0  0  0  0  0  0
   47.7630   32.4720   48.4320 O   0  0  0  0  0  0  0  0  0  0  0  0
   48.7110   31.6280   48.9610 C   0  0  0  0  0  0  0  0  0  0  0  0
   48.5810   30.5240   49.5500 O   0  0  0  0  0  0  0  0  0  0  0  0
   46.8463   34.5392   42.4883 H   0  0  0  0  0  0  0  0  0  0  0  0
   47.9630   32.6014   43.6671 H   0  0  0  0  0  0  0  0  0  0  0  0
   44.4951   36.7957   44.1264 H   0  0  0  0  0  0  0  0  0  0  0  0
   45.6480   36.5437   42.7721 H   0  0  0  0  0  0  0  0  0  0  0  0
   44.0637   35.6972   42.7721 H   0  0  0  0  0  0  0  0  0  0  0  0
   46.3101   29.7084   48.0973 H   0  0  0  0  0  0  0  0  0  0  0  0
   49.7496   31.9736   48.8516 H   0  0  0  0  0  0  0  0  0  0  0  0
  1  6  2  0
  2  3  2  0
  2  1  1  0
  3  4  1  0
  4  5  2  0
  5  8  1  0
  6  5  1  0
  7  1  1  0
  8 10  1  0
 10 12  1  0
 10  9  2  0
 11 10  1  0
 12 13  1  0
 13 14  2  0
  2 15  1  0
  3 16  1  0
  7 17  1  0
  7 18  1  0
  7 19  1  0
 11 20  1  0
 13 21  1  0
M  ISO  7  15  14  16  14  17   8  18   8  19   8  20   3  21   6
M  END
>  <minimizedAffinity>  (1) 
-4.09030724

>  <minimizedRMSD>  (1) 
1.42328024

$$$$
