
     RDKit          3D

 25 25  0  0  0  0  0  0  0  0999 V2000
   45.5380   34.9190   44.0510 C   0  0  0  0  0  0  0  0  0  0  0  0
   46.6120   34.2440   43.4790 C   0  0  0  0  0  0  0  0  0  0  0  0
   47.1960   33.2020   44.2020 C   0  0  0  0  0  0  0  0  0  0  0  0
   46.6910   32.9010   45.4170 N   0  0  0  0  0  0  0  0  0  0  0  0
   45.6450   33.5770   45.9440 C   0  0  0  0  0  0  0  0  0  0  0  0
   45.0670   34.5920   45.2530 N   0  0  0  0  0  0  0  0  0  0  0  0
   44.8950   36.0380   43.2980 C   0  0  0  0  0  0  0  0  0  0  0  0
   45.2410   33.1510   47.2030 O   0  0  0  0  0  0  0  0  0  0  0  0
   44.7390   31.4080   49.0380 O   0  0  0  0  0  0  0  0  0  0  0  0
   45.7960   31.7640   47.9740 P   0  0  1  0  0  0  0  0  0  0  0  0
   45.9210   30.4280   46.9730 O   0  0  0  0  0  0  0  0  0  0  0  0
   47.2840   32.0450   48.7190 O   0  0  0  0  0  0  0  0  0  0  0  0
   47.9630   30.8900   49.0600 C   0  0  0  0  0  0  0  0  0  0  0  0
   49.3740   31.3230   49.4750 C   0  0  0  0  0  0  0  0  0  0  0  0
   46.9905   34.5236   42.4847 H   0  0  0  0  0  0  0  0  0  0  0  0
   48.0475   32.6397   43.7911 H   0  0  0  0  0  0  0  0  0  0  0  0
   44.4768   36.7657   44.0090 H   0  0  0  0  0  0  0  0  0  0  0  0
   45.6461   36.5335   42.6653 H   0  0  0  0  0  0  0  0  0  0  0  0
   44.0887   35.6385   42.6653 H   0  0  0  0  0  0  0  0  0  0  0  0
   45.9976   29.6090   47.5238 H   0  0  0  0  0  0  0  0  0  0  0  0
   47.4584   30.3853   49.8971 H   0  0  0  0  0  0  0  0  0  0  0  0
   47.9947   30.1830   48.2179 H   0  0  0  0  0  0  0  0  0  0  0  0
   49.4431   31.3442   50.5726 H   0  0  0  0  0  0  0  0  0  0  0  0
   50.1091   30.6091   49.0751 H   0  0  0  0  0  0  0  0  0  0  0  0
   49.5821   32.3264   49.0751 H   0  0  0  0  0  0  0  0  0  0  0  0
  1  6  2  0
  2  1  1  0
  2  3  2  0
  3  4  1  0
  4  5  2  0
  5  8  1  0
  6  5  1  0
  7  1  1  0
  8 10  1  0
 10 12  1  0
 10  9  2  0
 11 10  1  0
 12 13  1  0
 13 14  1  0
  2 15  1  0
  3 16  1  0
  7 17  1  0
  7 18  1  0
  7 19  1  0
 11 20  1  0
 13 21  1  0
 13 22  1  0
 14 23  1  0
 14 24  1  0
 14 25  1  0
M  ISO  8  15  14  16  14  17   8  18   8  19   8  20   3  21   8  22   8
M  ISO  3  23   8  24   8  25   8
M  END
>  <minimizedAffinity>  (1) 
-4.10859728

>  <minimizedRMSD>  (1) 
1.54795194

$$$$
