
     RDKit          3D

 26 27  0  0  0  0  0  0  0  0999 V2000
   45.6440   34.5480   44.1520 C   0  0  0  0  0  0  0  0  0  0  0  0
   46.7580   34.2870   43.3550 C   0  0  0  0  0  0  0  0  0  0  0  0
   47.5800   33.2260   43.7430 C   0  0  0  0  0  0  0  0  0  0  0  0
   47.2480   32.5200   44.8580 N   0  0  0  0  0  0  0  0  0  0  0  0
   46.1570   32.8070   45.6030 C   0  0  0  0  0  0  0  0  0  0  0  0
   45.3590   33.8210   45.2450 N   0  0  0  0  0  0  0  0  0  0  0  0
   45.4440   30.1760   45.4330 F   0  0  0  0  0  0  0  0  0  0  0  0
   45.4910   30.6900   46.6700 C   0  0  0  0  0  0  0  0  0  0  0  0
   45.8470   32.0170   46.7900 C   0  0  0  0  0  0  0  0  0  0  0  0
   45.9090   32.5940   48.0620 C   0  0  0  0  0  0  0  0  0  0  0  0
   45.6220   31.8750   49.2220 C   0  0  0  0  0  0  0  0  0  0  0  0
   45.2670   30.5490   49.0850 C   0  0  0  0  0  0  0  0  0  0  0  0
   45.2000   29.9530   47.8200 C   0  0  0  0  0  0  0  0  0  0  0  0
   47.0030   35.1130   42.1900 C   0  0  0  0  0  0  0  0  0  0  0  0
   48.5090   35.1580   41.9500 C   0  0  0  0  0  0  0  0  0  0  0  0
   44.9760   35.3773   43.8764 H   0  0  0  0  0  0  0  0  0  0  0  0
   48.4760   32.9670   43.1599 H   0  0  0  0  0  0  0  0  0  0  0  0
   46.1943   33.6526   48.1510 H   0  0  0  0  0  0  0  0  0  0  0  0
   45.6769   32.3493   50.2130 H   0  0  0  0  0  0  0  0  0  0  0  0
   45.0339   29.9532   49.9798 H   0  0  0  0  0  0  0  0  0  0  0  0
   44.9155   28.8942   47.7310 H   0  0  0  0  0  0  0  0  0  0  0  0
   46.4984   34.6806   41.3134 H   0  0  0  0  0  0  0  0  0  0  0  0
   46.6123   36.1282   42.3533 H   0  0  0  0  0  0  0  0  0  0  0  0
   49.0340   35.1737   42.9165 H   0  0  0  0  0  0  0  0  0  0  0  0
   48.8162   34.2686   41.3802 H   0  0  0  0  0  0  0  0  0  0  0  0
   48.7626   36.0641   41.3802 H   0  0  0  0  0  0  0  0  0  0  0  0
  1  6  2  0
  2  3  2  0
  2  1  1  0
  3  4  1  0
  4  5  2  0
  5  9  1  0
  6  5  1  0
  7  8  1  0
  8  9  2  0
  8 13  1  0
  9 10  1  0
 10 11  2  0
 12 11  1  0
 13 12  2  0
 14  2  1  0
 15 14  1  0
  1 16  1  0
  3 17  1  0
 10 18  1  0
 11 19  1  0
 12 20  1  0
 13 21  1  0
 14 22  1  0
 14 23  1  0
 15 24  1  0
 15 25  1  0
 15 26  1  0
M  ISO  8  16  14  17  14  18  14  19  14  20  14  21  14  22   8  23   8
M  ISO  3  24   8  25   8  26   8
M  END
>  <minimizedAffinity>  (1) 
-4.81488371

>  <minimizedRMSD>  (1) 
1.63911295

$$$$
