
     RDKit          3D

 23 24  0  0  0  0  0  0  0  0999 V2000
   45.4260   34.7770   44.3340 C   0  0  0  0  0  0  0  0  0  0  0  0
   46.3920   34.4370   43.3860 C   0  0  0  0  0  0  0  0  0  0  0  0
   47.2940   33.4270   43.7370 C   0  0  0  0  0  0  0  0  0  0  0  0
   47.1800   32.8450   44.9590 N   0  0  0  0  0  0  0  0  0  0  0  0
   46.2220   33.2130   45.8380 C   0  0  0  0  0  0  0  0  0  0  0  0
   45.3380   34.1840   45.5290 N   0  0  0  0  0  0  0  0  0  0  0  0
   46.2860   32.4440   47.1060 C   0  0  0  0  0  0  0  0  0  0  0  0
   47.4130   32.0890   47.8030 C   0  0  0  0  0  0  0  0  0  0  0  0
   47.2690   31.3830   48.9440 C   0  0  0  0  0  0  0  0  0  0  0  0
   45.9660   31.0490   49.3540 C   0  0  0  0  0  0  0  0  0  0  0  0
   44.9190   31.7620   48.0780 S   0  0  0  0  0  0  0  0  0  0  0  0
   46.4170   35.1340   42.1080 C   0  0  0  0  0  0  0  0  0  0  0  0
   47.8250   35.0700   41.5570 C   0  0  0  0  0  0  0  0  0  0  0  0
   44.7039   35.5691   44.0867 H   0  0  0  0  0  0  0  0  0  0  0  0
   48.0808   33.1101   43.0366 H   0  0  0  0  0  0  0  0  0  0  0  0
   48.4116   32.3735   47.4400 H   0  0  0  0  0  0  0  0  0  0  0  0
   48.1447   31.0779   49.5357 H   0  0  0  0  0  0  0  0  0  0  0  0
   45.6591   30.4838   50.2464 H   0  0  0  0  0  0  0  0  0  0  0  0
   45.7213   34.6497   41.4070 H   0  0  0  0  0  0  0  0  0  0  0  0
   46.1109   36.1819   42.2428 H   0  0  0  0  0  0  0  0  0  0  0  0
   48.5434   35.0373   42.3894 H   0  0  0  0  0  0  0  0  0  0  0  0
   47.9368   34.1658   40.9405 H   0  0  0  0  0  0  0  0  0  0  0  0
   48.0183   35.9603   40.9405 H   0  0  0  0  0  0  0  0  0  0  0  0
  1  6  2  0
  2  3  2  0
  2  1  1  0
  3  4  1  0
  4  5  2  0
  5  7  1  0
  6  5  1  0
  7  8  2  0
  7 11  1  0
  8  9  1  0
  9 10  2  0
 11 10  1  0
 12  2  1  0
 13 12  1  0
  1 14  1  0
  3 15  1  0
  8 16  1  0
  9 17  1  0
 10 18  1  0
 12 19  1  0
 12 20  1  0
 13 21  1  0
 13 22  1  0
 13 23  1  0
M  ISO  8  14  14  15  14  16  14  17  14  18  14  19   8  20   8  21   8
M  ISO  2  22   8  23   8
M  END
>  <minimizedAffinity>  (1) 
-4.25863314

>  <minimizedRMSD>  (1) 
1.25920761

$$$$
