
     RDKit          3D

 18 18  0  0  0  0  0  0  0  0999 V2000
   45.2000   35.3090   43.9480 C   0  0  0  0  0  0  0  0  0  0  0  0
   46.2650   34.6220   43.3180 C   0  0  0  0  0  0  0  0  0  0  0  0
   46.8700   33.6090   44.0620 C   0  0  0  0  0  0  0  0  0  0  0  0
   46.4100   33.3530   45.3100 N   0  0  0  0  0  0  0  0  0  0  0  0
   45.3880   34.0390   45.8650 C   0  0  0  0  0  0  0  0  0  0  0  0
   44.7760   35.0260   45.1790 N   0  0  0  0  0  0  0  0  0  0  0  0
   45.0230   33.6490   47.1830 N   0  0  0  0  0  0  0  0  0  0  0  0
   46.6370   35.0040   41.9780 C   0  0  0  0  0  0  0  0  0  0  0  0
   48.1410   35.2030   41.9360 C   0  0  0  0  0  0  0  0  0  0  0  0
   44.6978   36.1160   43.3943 H   0  0  0  0  0  0  0  0  0  0  0  0
   47.7053   33.0288   43.6429 H   0  0  0  0  0  0  0  0  0  0  0  0
   44.2515   34.1298   47.6673 H   0  0  0  0  0  0  0  0  0  0  0  0
   45.5301   32.8857   47.6533 H   0  0  0  0  0  0  0  0  0  0  0  0
   46.3473   34.2117   41.2720 H   0  0  0  0  0  0  0  0  0  0  0  0
   46.1247   35.9353   41.6948 H   0  0  0  0  0  0  0  0  0  0  0  0
   48.5328   35.2548   42.9625 H   0  0  0  0  0  0  0  0  0  0  0  0
   48.6079   34.3588   41.4075 H   0  0  0  0  0  0  0  0  0  0  0  0
   48.3723   36.1396   41.4075 H   0  0  0  0  0  0  0  0  0  0  0  0
  1  6  2  0
  2  1  1  0
  2  3  2  0
  3  4  1  0
  4  5  2  0
  5  7  1  0
  6  5  1  0
  8  2  1  0
  9  8  1  0
  1 10  1  0
  3 11  1  0
  7 12  1  0
  7 13  1  0
  8 14  1  0
  8 15  1  0
  9 16  1  0
  9 17  1  0
  9 18  1  0
M  ISO  7  10  14  11  14  14   8  15   8  16   8  17   8  18   8
M  END
>  <minimizedAffinity>  (1) 
-3.77434444

>  <minimizedRMSD>  (1) 
0.15307489

$$$$
