
     RDKit          3D

 17 17  0  0  0  0  0  0  0  0999 V2000
   45.3770   34.9140   44.2360 C   0  0  0  0  0  0  0  0  0  0  0  0
   46.4040   34.4560   43.4100 C   0  0  0  0  0  0  0  0  0  0  0  0
   47.1940   33.4070   43.8920 C   0  0  0  0  0  0  0  0  0  0  0  0
   46.9220   32.8960   45.1240 N   0  0  0  0  0  0  0  0  0  0  0  0
   45.9110   33.3770   45.8890 C   0  0  0  0  0  0  0  0  0  0  0  0
   45.1360   34.3940   45.4360 N   0  0  0  0  0  0  0  0  0  0  0  0
   46.6270   35.0610   42.1010 C   0  0  0  0  0  0  0  0  0  0  0  0
   48.1240   35.1880   41.8880 C   0  0  0  0  0  0  0  0  0  0  0  0
   45.6290   32.6470   47.4860 S   0  0  0  0  0  0  0  0  0  0  0  0
   44.7412   35.7382   43.8804 H   0  0  0  0  0  0  0  0  0  0  0  0
   48.0191   33.0029   43.2871 H   0  0  0  0  0  0  0  0  0  0  0  0
   46.1918   34.4239   41.3170 H   0  0  0  0  0  0  0  0  0  0  0  0
   46.1504   36.0512   42.0532 H   0  0  0  0  0  0  0  0  0  0  0  0
   48.6308   35.2310   42.8634 H   0  0  0  0  0  0  0  0  0  0  0  0
   48.4891   34.3176   41.3231 H   0  0  0  0  0  0  0  0  0  0  0  0
   48.3373   36.1075   41.3231 H   0  0  0  0  0  0  0  0  0  0  0  0
   45.9745   33.5415   48.4644 H   0  0  0  0  0  0  0  0  0  0  0  0
  1  6  2  0
  2  3  2  0
  2  1  1  0
  3  4  1  0
  4  5  2  0
  5  9  1  0
  6  5  1  0
  7  2  1  0
  8  7  1  0
  1 10  1  0
  3 11  1  0
  7 12  1  0
  7 13  1  0
  8 14  1  0
  8 15  1  0
  8 16  1  0
  9 17  1  0
M  ISO  8  10  14  11  14  12   8  13   8  14   8  15   8  16   8  17  11
M  END
>  <minimizedAffinity>  (1) 
-3.23832273

>  <minimizedRMSD>  (1) 
0.521288037

$$$$
