
     RDKit          3D

 40 42  0  0  0  0  0  0  0  0999 V2000
   46.5940   34.5120   42.4660 C   0  0  0  0  0  0  0  0  0  0  0  0
   47.8180   34.1720   41.8730 C   0  0  0  0  0  0  0  0  0  0  0  0
   48.5760   33.1980   42.5060 C   0  0  0  0  0  0  0  0  0  0  0  0
   48.0860   32.6410   43.6490 N   0  0  0  0  0  0  0  0  0  0  0  0
   46.9220   32.9840   44.1890 C   0  0  0  0  0  0  0  0  0  0  0  0
   46.1640   33.9290   43.5940 N   0  0  0  0  0  0  0  0  0  0  0  0
   45.9020   30.1260   43.8640 Cl  0  0  0  0  0  0  0  0  0  0  0  0
   45.9800   31.0360   45.3620 C   0  0  0  0  0  0  0  0  0  0  0  0
   46.4620   32.3430   45.4180 C   0  0  0  0  0  0  0  0  0  0  0  0
   46.5160   33.0410   46.6060 C   0  0  0  0  0  0  0  0  0  0  0  0
   46.0750   32.4160   47.7680 C   0  0  0  0  0  0  0  0  0  0  0  0
   45.6050   31.1330   47.6860 C   0  0  0  0  0  0  0  0  0  0  0  0
   45.0600   30.3850   49.1720 Cl  0  0  0  0  0  0  0  0  0  0  0  0
   45.5430   30.4200   46.5190 C   0  0  0  0  0  0  0  0  0  0  0  0
   48.2170   34.8500   40.6460 C   0  0  0  0  0  0  0  0  0  0  0  0
   48.2930   33.8150   39.5460 C   0  0  0  0  0  0  0  0  0  0  0  0
   47.4550   34.0560   38.4250 N   0  0  0  0  0  0  0  0  0  0  0  0
   48.2750   34.4210   37.2980 C   0  0  0  0  0  0  0  0  0  0  0  0
   48.7020   33.2320   36.4740 C   0  0  0  0  0  0  0  0  0  0  0  0
   47.6240   32.3330   36.1420 N   0  0  0  0  0  0  0  0  0  0  0  0
   47.0890   31.8440   37.4220 C   0  0  0  0  0  0  0  0  0  0  0  0
   46.5040   33.0350   38.1000 C   0  0  0  0  0  0  0  0  0  0  0  0
   45.9670   35.2810   41.9910 H   0  0  0  0  0  0  0  0  0  0  0  0
   49.5471   32.8835   42.0961 H   0  0  0  0  0  0  0  0  0  0  0  0
   46.9001   34.0714   46.6343 H   0  0  0  0  0  0  0  0  0  0  0  0
   46.1034   32.9424   48.7335 H   0  0  0  0  0  0  0  0  0  0  0  0
   45.1577   29.3898   46.5029 H   0  0  0  0  0  0  0  0  0  0  0  0
   47.4744   35.6185   40.3853 H   0  0  0  0  0  0  0  0  0  0  0  0
   49.1929   35.3398   40.7791 H   0  0  0  0  0  0  0  0  0  0  0  0
   49.3329   33.7737   39.1899 H   0  0  0  0  0  0  0  0  0  0  0  0
   47.9409   32.8727   39.9911 H   0  0  0  0  0  0  0  0  0  0  0  0
   47.7033   35.1065   36.6552 H   0  0  0  0  0  0  0  0  0  0  0  0
   49.1864   34.8943   37.6921 H   0  0  0  0  0  0  0  0  0  0  0  0
   49.1459   33.6011   35.5377 H   0  0  0  0  0  0  0  0  0  0  0  0
   49.4171   32.6610   37.0844 H   0  0  0  0  0  0  0  0  0  0  0  0
   46.8921   32.8318   35.6163 H   0  0  0  0  0  0  0  0  0  0  0  0
   46.3137   31.0835   37.2474 H   0  0  0  0  0  0  0  0  0  0  0  0
   47.8723   31.3739   38.0347 H   0  0  0  0  0  0  0  0  0  0  0  0
   45.7443   33.4713   37.4348 H   0  0  0  0  0  0  0  0  0  0  0  0
   46.0854   32.6802   39.0533 H   0  0  0  0  0  0  0  0  0  0  0  0
  1  6  2  0
  2  1  1  0
  2  3  2  0
  3  4  1  0
  4  5  2  0
  5  9  1  0
  6  5  1  0
  7  8  1  0
  8  9  2  0
  8 14  1  0
  9 10  1  0
 10 11  2  0
 12 11  1  0
 12 13  1  0
 14 12  2  0
 15  2  1  0
 16 15  1  0
 17 16  1  0
 18 17  1  0
 19 18  1  0
 20 19  1  0
 20 21  1  0
 21 22  1  0
 22 17  1  0
  1 23  1  0
  3 24  1  0
 10 25  1  0
 11 26  1  0
 14 27  1  0
 15 28  1  0
 15 29  1  0
 16 30  1  0
 16 31  1  0
 18 32  1  0
 18 33  1  0
 19 34  1  0
 19 35  1  0
 20 36  1  0
 21 37  1  0
 21 38  1  0
 22 39  1  0
 22 40  1  0
M  ISO  8  23  14  24  14  25  14  26  14  27  14  28   8  29   8  30   8
M  ISO  8  31   8  32  13  33  13  34  13  35  13  36   5  37  13  38  13
M  ISO  2  39  13  40  13
M  END
>  <minimizedAffinity>  (1) 
-4.9249382

>  <minimizedRMSD>  (1) 
1.26852679

$$$$
