
     RDKit          3D

 27 28  0  0  0  0  0  0  0  0999 V2000
   46.8380   34.7640   42.6660 C   0  0  0  0  0  0  0  0  0  0  0  0
   48.0400   34.3900   42.0540 C   0  0  0  0  0  0  0  0  0  0  0  0
   48.7340   33.3280   42.6180 C   0  0  0  0  0  0  0  0  0  0  0  0
   48.2070   32.7210   43.7180 N   0  0  0  0  0  0  0  0  0  0  0  0
   47.0610   33.1040   44.2740 C   0  0  0  0  0  0  0  0  0  0  0  0
   46.3660   34.1320   43.7490 N   0  0  0  0  0  0  0  0  0  0  0  0
   45.9810   30.3000   43.7930 Cl  0  0  0  0  0  0  0  0  0  0  0  0
   46.0440   31.1310   45.3360 C   0  0  0  0  0  0  0  0  0  0  0  0
   46.5560   32.4110   45.4510 C   0  0  0  0  0  0  0  0  0  0  0  0
   46.5960   33.0510   46.6860 C   0  0  0  0  0  0  0  0  0  0  0  0
   46.1110   32.3850   47.8080 C   0  0  0  0  0  0  0  0  0  0  0  0
   45.6150   31.1190   47.6430 C   0  0  0  0  0  0  0  0  0  0  0  0
   45.0120   30.3040   49.0730 Cl  0  0  0  0  0  0  0  0  0  0  0  0
   45.5620   30.4570   46.4340 C   0  0  0  0  0  0  0  0  0  0  0  0
   48.4750   35.1360   40.8810 C   0  0  0  0  0  0  0  0  0  0  0  0
   47.9700   34.3990   39.6410 C   0  0  0  0  0  0  0  0  0  0  0  0
   49.0690   33.6250   39.2090 O   0  0  0  0  0  0  0  0  0  0  0  0
   46.2635   35.6023   42.2450 H   0  0  0  0  0  0  0  0  0  0  0  0
   49.6862   32.9850   42.1872 H   0  0  0  0  0  0  0  0  0  0  0  0
   47.0049   34.0683   46.7743 H   0  0  0  0  0  0  0  0  0  0  0  0
   46.1257   32.8620   48.7991 H   0  0  0  0  0  0  0  0  0  0  0  0
   45.1538   29.4388   46.3518 H   0  0  0  0  0  0  0  0  0  0  0  0
   48.0557   36.1526   40.9081 H   0  0  0  0  0  0  0  0  0  0  0  0
   49.5722   35.2122   40.8608 H   0  0  0  0  0  0  0  0  0  0  0  0
   47.1168   33.7528   39.8949 H   0  0  0  0  0  0  0  0  0  0  0  0
   47.6173   35.0907   38.8617 H   0  0  0  0  0  0  0  0  0  0  0  0
   49.5594   33.2797   39.9967 H   0  0  0  0  0  0  0  0  0  0  0  0
  1  6  2  0
  2  3  2  0
  2  1  1  0
  3  4  1  0
  4  5  2  0
  5  9  1  0
  6  5  1  0
  7  8  1  0
  8  9  2  0
  8 14  1  0
  9 10  1  0
 10 11  2  0
 12 11  1  0
 12 13  1  0
 14 12  2  0
 15  2  1  0
 16 15  1  0
 17 16  1  0
  1 18  1  0
  3 19  1  0
 10 20  1  0
 11 21  1  0
 14 22  1  0
 15 23  1  0
 15 24  1  0
 16 25  1  0
 16 26  1  0
 17 27  1  0
M  ISO  8  18  14  19  14  20  14  21  14  22  14  23   8  24   8  25   8
M  ISO  2  26   8  27   3
M  END
>  <minimizedAffinity>  (1) 
-4.52931452

>  <minimizedRMSD>  (1) 
0.227807105

$$$$
