
     RDKit          3D

 32 34  0  0  1  0  0  0  0  0999 V2000
   47.4430   33.2560   42.6040 C   0  0  2  0  0  0  0  0  0  0  0  0
   48.8690   32.9340   42.3810 C   0  0  0  0  0  0  0  0  0  0  0  0
   49.7930   34.0790   42.6610 C   0  0  0  0  0  0  0  0  0  0  0  0
   49.4120   35.3480   41.9210 C   0  0  0  0  0  0  0  0  0  0  0  0
   47.9310   35.5870   41.8460 C   0  0  0  0  0  0  0  0  0  0  0  0
   47.1760   34.7360   42.8370 C   0  0  1  0  0  0  0  0  0  0  0  0
   46.8730   32.5170   43.7470 C   0  0  0  0  0  0  0  0  0  0  0  0
   47.0890   33.0940   45.0130 C   0  0  0  0  0  0  0  0  0  0  0  0
   46.5900   32.4730   46.1650 C   0  0  0  0  0  0  0  0  0  0  0  0
   45.8990   31.3030   45.9700 N   0  0  0  0  0  0  0  0  0  0  0  0
   45.7030   30.7660   44.7400 C   0  0  0  0  0  0  0  0  0  0  0  0
   46.1930   31.3780   43.6340 N   0  0  0  0  0  0  0  0  0  0  0  0
   45.7220   34.9900   42.6560 C   0  0  0  0  0  0  0  0  0  0  0  0
   45.0320   34.7420   41.5160 N   0  0  0  0  0  0  0  0  0  0  0  0
   43.7340   35.1010   41.7330 C   0  0  0  0  0  0  0  0  0  0  0  0
   43.6330   35.5650   42.9990 N   0  0  0  0  0  0  0  0  0  0  0  0
   44.8370   35.4970   43.5550 N   0  0  0  0  0  0  0  0  0  0  0  0
   46.9570   32.9494   41.6660 H   0  0  0  0  0  0  0  0  0  0  0  0
   49.1435   32.0966   43.0393 H   0  0  0  0  0  0  0  0  0  0  0  0
   48.9803   32.6826   41.3159 H   0  0  0  0  0  0  0  0  0  0  0  0
   49.7766   34.2857   43.7413 H   0  0  0  0  0  0  0  0  0  0  0  0
   50.7939   33.7847   42.3124 H   0  0  0  0  0  0  0  0  0  0  0  0
   49.8750   36.2021   42.4368 H   0  0  0  0  0  0  0  0  0  0  0  0
   49.7701   35.2347   40.8871 H   0  0  0  0  0  0  0  0  0  0  0  0
   47.7299   36.6469   42.0607 H   0  0  0  0  0  0  0  0  0  0  0  0
   47.5916   35.3175   40.8350 H   0  0  0  0  0  0  0  0  0  0  0  0
   47.5055   34.9954   43.8539 H   0  0  0  0  0  0  0  0  0  0  0  0
   47.6515   34.0355   45.0976 H   0  0  0  0  0  0  0  0  0  0  0  0
   46.7430   32.8982   47.1679 H   0  0  0  0  0  0  0  0  0  0  0  0
   45.1415   29.8255   44.6390 H   0  0  0  0  0  0  0  0  0  0  0  0
   42.9127   35.0261   41.0050 H   0  0  0  0  0  0  0  0  0  0  0  0
   42.7746   35.9100   43.4518 H   0  0  0  0  0  0  0  0  0  0  0  0
  1  6  1  0
  1  7  1  0
  2  1  1  0
  2  3  1  0
  4  3  1  0
  5  4  1  0
  5  6  1  0
  7  8  2  0
  8  9  1  0
 10  9  2  0
 11 10  1  0
 12  7  1  0
 12 11  2  0
 13  6  1  0
 13 17  2  0
 14 15  2  0
 14 13  1  0
 15 16  1  0
 16 17  1  0
  1 18  1  6
  2 19  1  0
  2 20  1  0
  3 21  1  0
  3 22  1  0
  4 23  1  0
  4 24  1  0
  5 25  1  0
  5 26  1  0
  6 27  1  1
  8 28  1  0
  9 29  1  0
 11 30  1  0
 15 31  1  0
 16 32  1  0
M  ISO  8  18  13  19  13  20  13  21  13  22  13  23  13  24  13  25  13
M  ISO  7  26  13  27  13  28  14  29  14  30  14  31  14  32   9
M  END
>  <minimizedAffinity>  (1) 
-4.97940016

>  <minimizedRMSD>  (1) 
4.47712851

$$$$
