
     RDKit          3D

 14 14  0  0  0  0  0  0  0  0999 V2000
   44.5410   36.0310   44.5050 C   0  0  0  0  0  0  0  0  0  0  0  0
   45.2030   35.9420   43.2670 C   0  0  0  0  0  0  0  0  0  0  0  0
   46.0650   34.8600   43.0910 C   0  0  0  0  0  0  0  0  0  0  0  0
   46.2290   33.9520   44.1050 N   0  0  0  0  0  0  0  0  0  0  0  0
   45.5700   34.0820   45.2750 C   0  0  0  0  0  0  0  0  0  0  0  0
   44.7280   35.1260   45.4670 N   0  0  0  0  0  0  0  0  0  0  0  0
   46.7510   34.7740   41.7990 C   0  0  0  0  0  0  0  0  0  0  0  0
   45.8300   34.5420   40.7680 O   0  0  0  0  0  0  0  0  0  0  0  0
   43.8511   36.8688   44.6845 H   0  0  0  0  0  0  0  0  0  0  0  0
   45.0481   36.6901   42.4756 H   0  0  0  0  0  0  0  0  0  0  0  0
   45.7164   33.3399   46.0737 H   0  0  0  0  0  0  0  0  0  0  0  0
   47.2795   35.7193   41.6062 H   0  0  0  0  0  0  0  0  0  0  0  0
   47.4664   33.9390   41.8312 H   0  0  0  0  0  0  0  0  0  0  0  0
   44.9475   34.3197   41.1577 H   0  0  0  0  0  0  0  0  0  0  0  0
  1  6  2  0
  2  1  1  0
  3  2  2  0
  3  4  1  0
  4  5  2  0
  5  6  1  0
  7  3  1  0
  8  7  1  0
  1  9  1  0
  2 10  1  0
  5 11  1  0
  7 12  1  0
  7 13  1  0
  8 14  1  0
M  ISO  6   9  14  10  14  11  14  12   8  13   8  14   3
M  END
>  <minimizedAffinity>  (1) 
-3.15080047

>  <minimizedRMSD>  (1) 
0.276391774

$$$$
