
     RDKit          3D

 39 41  0  0  1  0  0  0  0  0999 V2000
   47.0360   34.4990   41.4810 N   0  0  0  0  0  0  0  0  0  0  0  0
   47.4050   34.2680   40.1170 C   0  0  0  0  0  0  0  0  0  0  0  0
   48.6820   35.0790   40.0210 C   0  0  0  0  0  0  0  0  0  0  0  0
   48.9980   35.6590   41.3700 C   0  0  0  0  0  0  0  0  0  0  0  0
   48.0970   34.8150   42.3080 C   0  0  2  0  0  0  0  0  0  0  0  0
   48.9650   33.6660   42.7710 C   0  0  0  0  0  0  0  0  0  0  0  0
   48.4700   32.3240   42.2790 C   0  0  0  0  0  0  0  0  0  0  0  0
   49.3910   31.3000   42.9590 C   0  0  0  0  0  0  0  0  0  0  0  0
   50.7760   31.4070   42.4160 C   0  0  0  0  0  0  0  0  0  0  0  0
   51.0310   32.7170   41.7070 C   0  0  0  0  0  0  0  0  0  0  0  0
   50.4190   33.8890   42.4280 C   0  0  0  0  0  0  0  0  0  0  0  0
   45.7100   34.4890   41.7890 C   0  0  0  0  0  0  0  0  0  0  0  0
   44.4580   36.0950   44.9700 C   0  0  0  0  0  0  0  0  0  0  0  0
   44.7810   35.9810   43.5960 C   0  0  0  0  0  0  0  0  0  0  0  0
   45.3630   34.7890   43.1710 C   0  0  0  0  0  0  0  0  0  0  0  0
   45.5830   33.8230   44.0910 N   0  0  0  0  0  0  0  0  0  0  0  0
   45.2640   33.9530   45.4130 C   0  0  0  0  0  0  0  0  0  0  0  0
   44.7010   35.0940   45.8450 N   0  0  0  0  0  0  0  0  0  0  0  0
   46.8993   33.6658   39.3479 H   0  0  0  0  0  0  0  0  0  0  0  0
   49.2813   35.2202   39.1094 H   0  0  0  0  0  0  0  0  0  0  0  0
   50.0620   35.5329   41.6191 H   0  0  0  0  0  0  0  0  0  0  0  0
   48.8159   36.7416   41.4390 H   0  0  0  0  0  0  0  0  0  0  0  0
   47.7003   35.2699   43.2276 H   0  0  0  0  0  0  0  0  0  0  0  0
   48.8864   33.6404   43.8679 H   0  0  0  0  0  0  0  0  0  0  0  0
   47.4233   32.1630   42.5765 H   0  0  0  0  0  0  0  0  0  0  0  0
   48.4961   32.2457   41.1821 H   0  0  0  0  0  0  0  0  0  0  0  0
   49.4101   31.4923   44.0419 H   0  0  0  0  0  0  0  0  0  0  0  0
   49.0072   30.2881   42.7622 H   0  0  0  0  0  0  0  0  0  0  0  0
   51.4877   31.3149   43.2496 H   0  0  0  0  0  0  0  0  0  0  0  0
   50.9037   30.6020   41.6773 H   0  0  0  0  0  0  0  0  0  0  0  0
   52.1173   32.8743   41.6356 H   0  0  0  0  0  0  0  0  0  0  0  0
   50.5662   32.6557   40.7119 H   0  0  0  0  0  0  0  0  0  0  0  0
   50.9783   34.0605   43.3595 H   0  0  0  0  0  0  0  0  0  0  0  0
   50.4730   34.7582   41.7561 H   0  0  0  0  0  0  0  0  0  0  0  0
   45.2126   35.2336   41.1501 H   0  0  0  0  0  0  0  0  0  0  0  0
   45.3799   33.4528   41.6237 H   0  0  0  0  0  0  0  0  0  0  0  0
   43.9964   37.0242   45.3354 H   0  0  0  0  0  0  0  0  0  0  0  0
   44.5801   36.8018   42.8917 H   0  0  0  0  0  0  0  0  0  0  0  0
   45.4660   33.1320   46.1166 H   0  0  0  0  0  0  0  0  0  0  0  0
  1 12  1  0
  1  5  1  0
  2  1  1  0
  3  2  2  0
  3  4  1  0
  4  5  1  0
  5  6  1  0
  7  6  1  0
  7  8  1  0
  9  8  1  0
 10  9  1  0
 10 11  1  0
 11  6  1  0
 12 15  1  0
 13 18  2  0
 14 13  1  0
 15 14  2  0
 15 16  1  0
 16 17  2  0
 17 18  1  0
  2 19  1  0
  3 20  1  0
  4 21  1  0
  4 22  1  0
  5 23  1  1
  6 24  1  0
  7 25  1  0
  7 26  1  0
  8 27  1  0
  8 28  1  0
  9 29  1  0
  9 30  1  0
 10 31  1  0
 10 32  1  0
 11 33  1  0
 11 34  1  0
 12 35  1  0
 12 36  1  0
 13 37  1  0
 14 38  1  0
 17 39  1  0
M  ISO  8  19  13  20  13  21  13  22  13  23  13  24  13  25  13  26  13
M  ISO  8  27  13  28  13  29  13  30  13  31  13  32  13  33  13  34  13
M  ISO  5  35   8  36   8  37  14  38  14  39  14
M  END
>  <minimizedAffinity>  (1) 
-5.4328866

>  <minimizedRMSD>  (1) 
0.522889495

$$$$
