
     RDKit          3D

 36 38  0  0  1  0  0  0  0  0999 V2000
   47.1190   34.6010   41.6230 N   0  0  0  0  0  0  0  0  0  0  0  0
   47.5360   34.3130   40.2830 C   0  0  0  0  0  0  0  0  0  0  0  0
   48.7460   35.2040   40.1510 C   0  0  0  0  0  0  0  0  0  0  0  0
   48.9860   35.8960   41.4390 C   0  0  0  0  0  0  0  0  0  0  0  0
   48.1440   35.0010   42.4460 C   0  0  2  0  0  0  0  0  0  0  0  0
   50.3250   33.7320   41.9260 C   0  0  2  0  0  0  0  0  0  0  0  0
   49.1900   33.9520   42.8240 C   0  0  2  0  0  0  0  0  0  0  0  0
   48.5990   32.7100   43.0350 O   0  0  0  0  0  0  0  0  0  0  0  0
   49.1430   31.7800   42.1780 C   0  0  0  0  0  0  0  0  0  0  0  0
   49.7790   32.5980   41.0480 C   0  0  2  0  0  0  0  0  0  0  0  0
   51.4310   33.2390   42.6640 O   0  0  0  0  0  0  0  0  0  0  0  0
   50.8380   31.9650   40.4550 O   0  0  0  0  0  0  0  0  0  0  0  0
   45.7700   34.5300   41.8910 C   0  0  0  0  0  0  0  0  0  0  0  0
   44.4160   36.0940   45.0550 C   0  0  0  0  0  0  0  0  0  0  0  0
   44.7750   35.9740   43.7100 C   0  0  0  0  0  0  0  0  0  0  0  0
   45.3780   34.8400   43.2520 C   0  0  0  0  0  0  0  0  0  0  0  0
   45.5840   33.9050   44.1750 N   0  0  0  0  0  0  0  0  0  0  0  0
   45.2470   33.9880   45.5030 C   0  0  0  0  0  0  0  0  0  0  0  0
   44.6600   35.0970   45.9310 N   0  0  0  0  0  0  0  0  0  0  0  0
   47.0925   33.6260   39.5473 H   0  0  0  0  0  0  0  0  0  0  0  0
   49.3542   35.3215   39.2420 H   0  0  0  0  0  0  0  0  0  0  0  0
   50.0544   35.8973   41.7007 H   0  0  0  0  0  0  0  0  0  0  0  0
   48.6979   36.9576   41.4365 H   0  0  0  0  0  0  0  0  0  0  0  0
   47.7027   35.3911   43.3750 H   0  0  0  0  0  0  0  0  0  0  0  0
   50.6618   34.6300   41.3873 H   0  0  0  0  0  0  0  0  0  0  0  0
   49.6162   34.4077   43.7299 H   0  0  0  0  0  0  0  0  0  0  0  0
   49.9053   31.1785   42.6949 H   0  0  0  0  0  0  0  0  0  0  0  0
   48.3862   31.0766   41.8006 H   0  0  0  0  0  0  0  0  0  0  0  0
   49.1010   32.8419   40.2168 H   0  0  0  0  0  0  0  0  0  0  0  0
   51.2447   33.3220   43.6328 H   0  0  0  0  0  0  0  0  0  0  0  0
   51.4404   31.6049   41.1533 H   0  0  0  0  0  0  0  0  0  0  0  0
   45.2559   35.2366   41.2229 H   0  0  0  0  0  0  0  0  0  0  0  0
   45.4898   33.4781   41.7326 H   0  0  0  0  0  0  0  0  0  0  0  0
   43.9271   37.0151   45.4051 H   0  0  0  0  0  0  0  0  0  0  0  0
   44.5695   36.8013   43.0148 H   0  0  0  0  0  0  0  0  0  0  0  0
   45.4581   33.1576   46.1928 H   0  0  0  0  0  0  0  0  0  0  0  0
  1 13  1  0
  1  5  1  0
  2  1  1  0
  3  2  2  0
  3  4  1  0
  4  5  1  0
  5  7  1  0
  6 11  1  0
  6  7  1  0
  7  8  1  0
  9  8  1  0
 10 12  1  0
 10  6  1  0
 10  9  1  0
 13 16  1  0
 14 19  2  0
 15 14  1  0
 16 15  2  0
 16 17  1  0
 17 18  2  0
 18 19  1  0
  2 20  1  0
  3 21  1  0
  4 22  1  0
  4 23  1  0
  5 24  1  1
  6 25  1  6
  7 26  1  1
  9 27  1  0
  9 28  1  0
 10 29  1  6
 11 30  1  0
 12 31  1  0
 13 32  1  0
 13 33  1  0
 14 34  1  0
 15 35  1  0
 18 36  1  0
M  ISO  8  20  13  21  13  22  13  23  13  24  13  25  13  26  13  27  13
M  ISO  8  28  13  29  13  30   3  31   3  32   8  33   8  34  14  35  14
M  ISO  1  36  14
M  END
>  <minimizedAffinity>  (1) 
-5.6723175

>  <minimizedRMSD>  (1) 
0.748325229

$$$$
