
     RDKit          3D

 37 39  0  0  1  0  0  0  0  0999 V2000
   47.7560   34.0760   42.0550 N   0  0  0  0  0  0  0  0  0  0  0  0
   47.8090   35.0860   41.0460 C   0  0  0  0  0  0  0  0  0  0  0  0
   49.0830   35.7980   41.4070 C   0  0  0  0  0  0  0  0  0  0  0  0
   49.7380   35.0910   42.5640 C   0  0  0  0  0  0  0  0  0  0  0  0
   48.9730   33.7790   42.6620 C   0  0  2  0  0  0  0  0  0  0  0  0
   49.5980   32.6730   42.0270 N   0  0  0  0  0  0  0  0  0  0  0  0
   48.9290   32.0360   40.9640 C   0  0  0  0  0  0  0  0  0  0  0  0
   49.9630   31.7450   39.8730 C   0  0  0  0  0  0  0  0  0  0  0  0
   51.0940   31.0110   40.3450 N   0  0  0  0  0  0  0  0  0  0  0  0
   51.4700   31.2710   41.7050 C   0  0  0  0  0  0  0  0  0  0  0  0
   51.0250   32.7000   41.9880 C   0  0  0  0  0  0  0  0  0  0  0  0
   46.5310   33.5880   42.3860 C   0  0  0  0  0  0  0  0  0  0  0  0
   44.5140   35.8580   44.6390 C   0  0  0  0  0  0  0  0  0  0  0  0
   45.1340   35.4030   43.4460 C   0  0  0  0  0  0  0  0  0  0  0  0
   45.8640   34.2310   43.5150 C   0  0  0  0  0  0  0  0  0  0  0  0
   45.9410   33.6000   44.7090 N   0  0  0  0  0  0  0  0  0  0  0  0
   45.3340   34.0600   45.8480 C   0  0  0  0  0  0  0  0  0  0  0  0
   44.6170   35.1980   45.8020 N   0  0  0  0  0  0  0  0  0  0  0  0
   47.1058   35.2885   40.2247 H   0  0  0  0  0  0  0  0  0  0  0  0
   49.4751   36.6947   40.9048 H   0  0  0  0  0  0  0  0  0  0  0  0
   50.8038   34.9098   42.3609 H   0  0  0  0  0  0  0  0  0  0  0  0
   49.7052   35.6752   43.4955 H   0  0  0  0  0  0  0  0  0  0  0  0
   48.8973   33.4511   43.7093 H   0  0  0  0  0  0  0  0  0  0  0  0
   48.4788   31.0955   41.3143 H   0  0  0  0  0  0  0  0  0  0  0  0
   48.1260   32.6783   40.5732 H   0  0  0  0  0  0  0  0  0  0  0  0
   50.3154   32.7026   39.4622 H   0  0  0  0  0  0  0  0  0  0  0  0
   49.4669   31.1240   39.1126 H   0  0  0  0  0  0  0  0  0  0  0  0
   50.8796   30.0071   40.2606 H   0  0  0  0  0  0  0  0  0  0  0  0
   50.9632   30.5696   42.3841 H   0  0  0  0  0  0  0  0  0  0  0  0
   52.5517   31.1439   41.8592 H   0  0  0  0  0  0  0  0  0  0  0  0
   51.3719   33.3725   41.1896 H   0  0  0  0  0  0  0  0  0  0  0  0
   51.4447   33.0702   42.9350 H   0  0  0  0  0  0  0  0  0  0  0  0
   45.8789   33.6937   41.5065 H   0  0  0  0  0  0  0  0  0  0  0  0
   46.7035   32.5479   42.6997 H   0  0  0  0  0  0  0  0  0  0  0  0
   43.9266   36.7875   44.6085 H   0  0  0  0  0  0  0  0  0  0  0  0
   45.0374   35.9613   42.5031 H   0  0  0  0  0  0  0  0  0  0  0  0
   45.4319   33.5039   46.7920 H   0  0  0  0  0  0  0  0  0  0  0  0
  1 12  1  0
  1  5  1  0
  2  3  2  0
  2  1  1  0
  3  4  1  0
  4  5  1  0
  6 11  1  0
  6  5  1  0
  7  6  1  0
  8  9  1  0
  8  7  1  0
  9 10  1  0
 10 11  1  0
 12 15  1  0
 13 18  2  0
 14 15  2  0
 14 13  1  0
 15 16  1  0
 16 17  2  0
 18 17  1  0
  2 19  1  0
  3 20  1  0
  4 21  1  0
  4 22  1  0
  5 23  1  1
  7 24  1  0
  7 25  1  0
  8 26  1  0
  8 27  1  0
  9 28  1  0
 10 29  1  0
 10 30  1  0
 11 31  1  0
 11 32  1  0
 12 33  1  0
 12 34  1  0
 13 35  1  0
 14 36  1  0
 17 37  1  0
M  ISO  8  19  13  20  13  21  13  22  13  23  13  24  13  25  13  26  13
M  ISO  8  27  13  28   5  29  13  30  13  31  13  32  13  33   8  34   8
M  ISO  3  35  14  36  14  37  14
M  END
>  <minimizedAffinity>  (1) 
-5.12784195

>  <minimizedRMSD>  (1) 
2.099401

$$$$
