
     RDKit          3D

 24 25  0  0  1  0  0  0  0  0999 V2000
   45.7940   34.6380   42.0020 C   0  0  0  0  0  0  0  0  0  0  0  0
   47.1130   34.7090   41.6840 N   0  0  0  0  0  0  0  0  0  0  0  0
   47.5010   34.2720   40.3770 C   0  0  0  0  0  0  0  0  0  0  0  0
   48.7330   35.1160   40.1420 C   0  0  0  0  0  0  0  0  0  0  0  0
   49.0160   35.9330   41.3690 C   0  0  0  0  0  0  0  0  0  0  0  0
   48.1340   35.2540   42.4410 C   0  0  2  0  0  0  0  0  0  0  0  0
   48.9080   34.3320   43.1410 O   0  0  0  0  0  0  0  0  0  0  0  0
   44.4370   35.6870   45.3630 C   0  0  0  0  0  0  0  0  0  0  0  0
   44.7160   35.7870   43.9810 C   0  0  0  0  0  0  0  0  0  0  0  0
   45.4560   34.7470   43.4200 C   0  0  0  0  0  0  0  0  0  0  0  0
   45.8550   33.7310   44.2120 N   0  0  0  0  0  0  0  0  0  0  0  0
   45.5640   33.6680   45.5590 C   0  0  0  0  0  0  0  0  0  0  0  0
   44.8510   34.6600   46.1130 N   0  0  0  0  0  0  0  0  0  0  0  0
   45.4156   33.6699   41.6421 H   0  0  0  0  0  0  0  0  0  0  0  0
   45.3331   35.5158   41.5256 H   0  0  0  0  0  0  0  0  0  0  0  0
   47.0302   33.5246   39.7214 H   0  0  0  0  0  0  0  0  0  0  0  0
   49.3285   35.1293   39.2172 H   0  0  0  0  0  0  0  0  0  0  0  0
   50.0805   35.8833   41.6417 H   0  0  0  0  0  0  0  0  0  0  0  0
   48.7991   37.0036   41.2398 H   0  0  0  0  0  0  0  0  0  0  0  0
   47.7223   35.9080   43.2239 H   0  0  0  0  0  0  0  0  0  0  0  0
   48.7897   34.4729   44.1138 H   0  0  0  0  0  0  0  0  0  0  0  0
   43.8546   36.4879   45.8420 H   0  0  0  0  0  0  0  0  0  0  0  0
   44.3678   36.6400   43.3800 H   0  0  0  0  0  0  0  0  0  0  0  0
   45.9103   32.8197   46.1677 H   0  0  0  0  0  0  0  0  0  0  0  0
  1 10  1  0
  2  1  1  0
  2  6  1  0
  3  2  1  0
  4  3  2  0
  4  5  1  0
  5  6  1  0
  6  7  1  0
  8 13  2  0
  9  8  1  0
 10  9  2  0
 10 11  1  0
 11 12  2  0
 12 13  1  0
  1 14  1  0
  1 15  1  0
  3 16  1  0
  4 17  1  0
  5 18  1  0
  5 19  1  0
  6 20  1  1
  7 21  1  0
  8 22  1  0
  9 23  1  0
 12 24  1  0
M  ISO  8  14   8  15   8  16  13  17  13  18  13  19  13  20  13  21   3
M  ISO  3  22  14  23  14  24  14
M  END
>  <minimizedAffinity>  (1) 
-4.49967241

>  <minimizedRMSD>  (1) 
0.433489323

$$$$
