
     RDKit          3D

 42 45  0  0  1  0  0  0  0  0999 V2000
   47.8540   33.9460   41.9910 N   0  0  0  0  0  0  0  0  0  0  0  0
   47.8560   34.8830   40.9410 C   0  0  0  0  0  0  0  0  0  0  0  0
   49.0290   35.7240   41.2460 C   0  0  0  0  0  0  0  0  0  0  0  0
   49.7050   35.1660   42.4950 C   0  0  0  0  0  0  0  0  0  0  0  0
   49.1350   33.7410   42.5340 C   0  0  2  0  0  0  0  0  0  0  0  0
   46.6760   33.3700   42.4020 C   0  0  0  0  0  0  0  0  0  0  0  0
   44.5890   35.8010   44.4170 C   0  0  0  0  0  0  0  0  0  0  0  0
   45.2520   35.2390   43.2870 C   0  0  0  0  0  0  0  0  0  0  0  0
   45.9820   34.0650   43.4630 C   0  0  0  0  0  0  0  0  0  0  0  0
   46.0110   33.5360   44.7040 N   0  0  0  0  0  0  0  0  0  0  0  0
   45.3650   34.0880   45.7890 C   0  0  0  0  0  0  0  0  0  0  0  0
   44.6610   35.2110   45.6430 N   0  0  0  0  0  0  0  0  0  0  0  0
   49.8560   33.0060   41.5810 O   0  0  0  0  0  0  0  0  0  0  0  0
   49.2980   30.8270   42.9910 O   0  0  0  0  0  0  0  0  0  0  0  0
   50.2960   31.4870   42.0680 P   0  0  2  0  0  0  0  0  0  0  0  0
   51.7570   31.6020   42.9200 O   0  0  0  0  0  0  0  0  0  0  0  0
   50.6070   30.4610   40.7320 O   0  0  0  0  0  0  0  0  0  0  0  0
   51.4750   31.5780   38.6690 C   0  0  0  0  0  0  0  0  0  0  0  0
   51.5240   30.7370   39.7610 C   0  0  0  0  0  0  0  0  0  0  0  0
   52.7000   30.0040   39.9620 C   0  0  0  0  0  0  0  0  0  0  0  0
   53.7920   30.1150   39.0950 C   0  0  0  0  0  0  0  0  0  0  0  0
   55.0120   29.5740   39.0120 N   0  0  0  0  0  0  0  0  0  0  0  0
   55.6540   30.0670   37.9300 C   0  0  0  0  0  0  0  0  0  0  0  0
   54.8430   30.9510   37.2840 N   0  0  0  0  0  0  0  0  0  0  0  0
   53.7070   30.9660   38.0130 C   0  0  0  0  0  0  0  0  0  0  0  0
   52.5500   31.6900   37.8120 C   0  0  0  0  0  0  0  0  0  0  0  0
   47.1541   34.9677   40.0983 H   0  0  0  0  0  0  0  0  0  0  0  0
   49.3594   36.6022   40.6719 H   0  0  0  0  0  0  0  0  0  0  0  0
   50.8001   35.1590   42.3912 H   0  0  0  0  0  0  0  0  0  0  0  0
   49.5186   35.7510   43.4077 H   0  0  0  0  0  0  0  0  0  0  0  0
   49.1581   33.2458   43.5160 H   0  0  0  0  0  0  0  0  0  0  0  0
   46.0028   33.3179   41.5336 H   0  0  0  0  0  0  0  0  0  0  0  0
   46.9471   32.3857   42.8115 H   0  0  0  0  0  0  0  0  0  0  0  0
   44.0088   36.7278   44.2969 H   0  0  0  0  0  0  0  0  0  0  0  0
   45.1889   35.7204   42.3000 H   0  0  0  0  0  0  0  0  0  0  0  0
   45.4300   33.6029   46.7741 H   0  0  0  0  0  0  0  0  0  0  0  0
   51.5737   31.5876   43.8928 H   0  0  0  0  0  0  0  0  0  0  0  0
   50.5660   32.1676   38.4789 H   0  0  0  0  0  0  0  0  0  0  0  0
   52.7668   29.3235   40.8237 H   0  0  0  0  0  0  0  0  0  0  0  0
   55.4027   28.8865   39.6720 H   0  0  0  0  0  0  0  0  0  0  0  0
   56.6738   29.7965   37.6188 H   0  0  0  0  0  0  0  0  0  0  0  0
   52.4834   32.3707   36.9505 H   0  0  0  0  0  0  0  0  0  0  0  0
  1  6  1  0
  1  5  1  0
  2  3  2  0
  2  1  1  0
  3  4  1  0
  4  5  1  0
  6  9  1  0
  7 12  2  0
  8  9  2  0
  8  7  1  0
  9 10  1  0
 10 11  2  0
 12 11  1  0
 13 15  1  0
 13  5  1  0
 15 16  1  0
 15 14  2  0
 17 15  1  0
 18 19  2  0
 19 20  1  0
 19 17  1  0
 21 20  2  0
 22 21  1  0
 23 22  1  0
 24 23  2  0
 24 25  1  0
 25 21  1  0
 26 25  2  0
 26 18  1  0
  2 27  1  0
  3 28  1  0
  4 29  1  0
  4 30  1  0
  5 31  1  1
  6 32  1  0
  6 33  1  0
  7 34  1  0
  8 35  1  0
 11 36  1  0
 16 37  1  0
 18 38  1  0
 20 39  1  0
 22 40  1  0
 23 41  1  0
 26 42  1  0
M  ISO  8  27  13  28  13  29  13  30  13  31  13  32   8  33   8  34  14
M  ISO  8  35  14  36  14  37   3  38  14  39  14  40   9  41  14  42  14
M  END
>  <minimizedAffinity>  (1) 
-5.52067184

>  <minimizedRMSD>  (1) 
0.936546743

$$$$
