
     RDKit          3D

 36 38  0  0  1  0  0  0  0  0999 V2000
   47.8760   33.9700   42.0030 N   0  0  0  0  0  0  0  0  0  0  0  0
   47.8590   34.8960   40.9330 C   0  0  0  0  0  0  0  0  0  0  0  0
   49.0220   35.7600   41.2410 C   0  0  0  0  0  0  0  0  0  0  0  0
   49.6980   35.2340   42.5000 C   0  0  0  0  0  0  0  0  0  0  0  0
   49.1530   33.7980   42.5590 C   0  0  2  0  0  0  0  0  0  0  0  0
   46.7030   33.3790   42.4090 C   0  0  0  0  0  0  0  0  0  0  0  0
   44.5930   35.7930   44.4230 C   0  0  0  0  0  0  0  0  0  0  0  0
   45.2640   35.2360   43.2890 C   0  0  0  0  0  0  0  0  0  0  0  0
   45.9970   34.0650   43.4720 C   0  0  0  0  0  0  0  0  0  0  0  0
   46.0240   33.5330   44.7130 N   0  0  0  0  0  0  0  0  0  0  0  0
   45.3720   34.0820   45.7950 C   0  0  0  0  0  0  0  0  0  0  0  0
   44.6630   35.2010   45.6470 N   0  0  0  0  0  0  0  0  0  0  0  0
   49.8990   33.0650   41.6230 O   0  0  0  0  0  0  0  0  0  0  0  0
   49.2770   30.9160   43.0550 O   0  0  0  0  0  0  0  0  0  0  0  0
   50.2770   31.5250   42.1040 P   0  0  2  0  0  0  0  0  0  0  0  0
   51.7640   31.5760   42.9230 O   0  0  0  0  0  0  0  0  0  0  0  0
   50.5240   30.4960   40.7570 O   0  0  0  0  0  0  0  0  0  0  0  0
   51.7710   30.4680   40.1600 C   0  0  0  0  0  0  0  0  0  0  0  0
   52.3540   31.3890   39.3050 C   0  0  0  0  0  0  0  0  0  0  0  0
   53.6060   31.1860   38.8130 C   0  0  0  0  0  0  0  0  0  0  0  0
   54.2660   29.9310   39.2600 C   0  0  0  0  0  0  0  0  0  0  0  0
   52.9680   29.1380   40.3880 S   0  0  0  0  0  0  0  0  0  0  0  0
   47.1591   34.9584   40.0867 H   0  0  0  0  0  0  0  0  0  0  0  0
   49.3436   36.6354   40.6577 H   0  0  0  0  0  0  0  0  0  0  0  0
   50.7937   35.2449   42.4030 H   0  0  0  0  0  0  0  0  0  0  0  0
   49.4947   35.8297   43.4021 H   0  0  0  0  0  0  0  0  0  0  0  0
   49.1744   33.3178   43.5484 H   0  0  0  0  0  0  0  0  0  0  0  0
   46.0329   33.3215   41.5385 H   0  0  0  0  0  0  0  0  0  0  0  0
   46.9838   32.3966   42.8164 H   0  0  0  0  0  0  0  0  0  0  0  0
   44.0091   36.7176   44.3037 H   0  0  0  0  0  0  0  0  0  0  0  0
   45.2032   35.7177   42.3019 H   0  0  0  0  0  0  0  0  0  0  0  0
   45.4363   33.5974   46.7804 H   0  0  0  0  0  0  0  0  0  0  0  0
   51.6031   31.5705   43.8998 H   0  0  0  0  0  0  0  0  0  0  0  0
   51.7983   32.2947   39.0207 H   0  0  0  0  0  0  0  0  0  0  0  0
   54.0950   31.8993   38.1332 H   0  0  0  0  0  0  0  0  0  0  0  0
   55.2660   29.5544   38.9988 H   0  0  0  0  0  0  0  0  0  0  0  0
  1  6  1  0
  1  5  1  0
  2  3  2  0
  2  1  1  0
  3  4  1  0
  4  5  1  0
  6  9  1  0
  7 12  2  0
  8  9  2  0
  8  7  1  0
  9 10  1  0
 10 11  2  0
 12 11  1  0
 13 15  1  0
 13  5  1  0
 15 16  1  0
 15 14  2  0
 17 15  1  0
 18 22  1  0
 18 17  1  0
 19 18  2  0
 20 21  2  0
 20 19  1  0
 21 22  1  0
  2 23  1  0
  3 24  1  0
  4 25  1  0
  4 26  1  0
  5 27  1  1
  6 28  1  0
  6 29  1  0
  7 30  1  0
  8 31  1  0
 11 32  1  0
 16 33  1  0
 19 34  1  0
 20 35  1  0
 21 36  1  0
M  ISO  8  23  13  24  13  25  13  26  13  27  13  28   8  29   8  30  14
M  ISO  6  31  14  32  14  33   3  34  14  35  14  36  14
M  END
>  <minimizedAffinity>  (1) 
-4.96631432

>  <minimizedRMSD>  (1) 
2.16645932

$$$$
