
     RDKit          3D

 38 40  0  0  1  0  0  0  0  0999 V2000
   46.6210   33.6290   42.9360 C   0  0  2  0  0  0  0  0  0  0  0  0
   46.0700   34.7440   42.1350 C   0  0  0  0  0  0  0  0  0  0  0  0
   45.6610   35.9250   42.9520 C   0  0  0  0  0  0  0  0  0  0  0  0
   44.7440   35.5860   44.1110 C   0  0  0  0  0  0  0  0  0  0  0  0
   45.0580   34.2710   44.7540 C   0  0  0  0  0  0  0  0  0  0  0  0
   46.4700   33.8310   44.4320 C   0  0  1  0  0  0  0  0  0  0  0  0
   48.0570   33.4270   42.6640 C   0  0  0  0  0  0  0  0  0  0  0  0
   48.8820   34.5620   42.7680 C   0  0  0  0  0  0  0  0  0  0  0  0
   50.2590   34.4800   42.5340 C   0  0  0  0  0  0  0  0  0  0  0  0
   50.7310   33.2250   42.2020 N   0  0  0  0  0  0  0  0  0  0  0  0
   49.9320   32.1540   42.1090 C   0  0  0  0  0  0  0  0  0  0  0  0
   48.6100   32.2600   42.3370 N   0  0  0  0  0  0  0  0  0  0  0  0
   46.8510   32.6450   45.1490 N   0  0  0  0  0  0  0  0  0  0  0  0
   46.8830   32.8450   46.5790 C   0  0  0  0  0  0  0  0  0  0  0  0
   45.9380   31.8320   47.1650 C   0  0  0  0  0  0  0  0  0  0  0  0
   46.0010   30.7270   46.1300 C   0  0  0  0  0  0  0  0  0  0  0  0
   46.0500   31.5070   44.8460 C   0  0  0  0  0  0  0  0  0  0  0  0
   46.0337   32.7503   42.6311 H   0  0  0  0  0  0  0  0  0  0  0  0
   46.8373   35.0678   41.4164 H   0  0  0  0  0  0  0  0  0  0  0  0
   45.1635   34.3665   41.6393 H   0  0  0  0  0  0  0  0  0  0  0  0
   46.5687   36.3972   43.3559 H   0  0  0  0  0  0  0  0  0  0  0  0
   45.0967   36.5932   42.2849 H   0  0  0  0  0  0  0  0  0  0  0  0
   44.8359   36.3762   44.8707 H   0  0  0  0  0  0  0  0  0  0  0  0
   43.7235   35.5138   43.7067 H   0  0  0  0  0  0  0  0  0  0  0  0
   44.9522   34.3698   45.8444 H   0  0  0  0  0  0  0  0  0  0  0  0
   44.3592   33.5158   44.3649 H   0  0  0  0  0  0  0  0  0  0  0  0
   47.1504   34.6304   44.7607 H   0  0  0  0  0  0  0  0  0  0  0  0
   48.4366   35.5309   43.0380 H   0  0  0  0  0  0  0  0  0  0  0  0
   50.9207   35.3555   42.6093 H   0  0  0  0  0  0  0  0  0  0  0  0
   50.3613   31.1767   41.8432 H   0  0  0  0  0  0  0  0  0  0  0  0
   47.9009   32.6845   46.9639 H   0  0  0  0  0  0  0  0  0  0  0  0
   46.5887   33.8704   46.8473 H   0  0  0  0  0  0  0  0  0  0  0  0
   46.2838   31.4816   48.1487 H   0  0  0  0  0  0  0  0  0  0  0  0
   44.9243   32.2176   47.3487 H   0  0  0  0  0  0  0  0  0  0  0  0
   46.9026   30.1100   46.2579 H   0  0  0  0  0  0  0  0  0  0  0  0
   45.1630   30.0167   46.1867 H   0  0  0  0  0  0  0  0  0  0  0  0
   45.0393   31.8138   44.5389 H   0  0  0  0  0  0  0  0  0  0  0  0
   46.4609   30.9165   44.0139 H   0  0  0  0  0  0  0  0  0  0  0  0
  1  6  1  0
  2  1  1  0
  2  3  1  0
  3  4  1  0
  4  5  1  0
  6  5  1  0
  6 13  1  0
  7  8  2  0
  7  1  1  0
  9  8  1  0
 10  9  2  0
 11 10  1  0
 11 12  2  0
 12  7  1  0
 13 14  1  0
 14 15  1  0
 16 15  1  0
 17 13  1  0
 17 16  1  0
  1 18  1  6
  2 19  1  0
  2 20  1  0
  3 21  1  0
  3 22  1  0
  4 23  1  0
  4 24  1  0
  5 25  1  0
  5 26  1  0
  6 27  1  1
  8 28  1  0
  9 29  1  0
 11 30  1  0
 14 31  1  0
 14 32  1  0
 15 33  1  0
 15 34  1  0
 16 35  1  0
 16 36  1  0
 17 37  1  0
 17 38  1  0
M  ISO  8  18  13  19  13  20  13  21  13  22  13  23  13  24  13  25  13
M  ISO  8  26  13  27  13  28  14  29  14  30  14  31  13  32  13  33  13
M  ISO  5  34  13  35  13  36  13  37  13  38  13
M  END
>  <minimizedAffinity>  (1) 
-4.75045681

>  <minimizedRMSD>  (1) 
1.65276408

$$$$
