
     RDKit          3D

 39 41  0  0  1  0  0  0  0  0999 V2000
   44.4670   35.8080   44.4630 C   0  0  0  0  0  0  0  0  0  0  0  0
   44.8920   35.6450   43.1420 C   0  0  0  0  0  0  0  0  0  0  0  0
   45.8020   34.6410   42.8490 C   0  0  0  0  0  0  0  0  0  0  0  0
   46.2320   33.8650   43.9000 N   0  0  0  0  0  0  0  0  0  0  0  0
   45.8080   34.0470   45.1510 C   0  0  0  0  0  0  0  0  0  0  0  0
   44.9180   35.0220   45.4530 N   0  0  0  0  0  0  0  0  0  0  0  0
   46.3500   33.1680   46.2180 C   0  0  2  0  0  0  0  0  0  0  0  0
   46.9870   32.0030   45.5460 C   0  0  0  0  0  0  0  0  0  0  0  0
   46.2200   30.7460   45.6250 C   0  0  0  0  0  0  0  0  0  0  0  0
   46.0050   30.4810   47.1030 C   0  0  0  0  0  0  0  0  0  0  0  0
   45.1230   31.4880   47.7250 C   0  0  0  0  0  0  0  0  0  0  0  0
   45.3410   32.8840   47.2280 C   0  0  0  0  0  0  0  0  0  0  0  0
   44.5590   33.9540   47.7390 N   0  0  0  0  0  0  0  0  0  0  0  0
   47.7140   34.4940   41.1750 C   0  0  0  0  0  0  0  0  0  0  0  0
   46.4200   34.3080   41.5820 C   0  0  0  0  0  0  0  0  0  0  0  0
   45.6220   33.7530   40.5920 C   0  0  0  0  0  0  0  0  0  0  0  0
   46.0300   33.4050   39.3290 C   0  0  0  0  0  0  0  0  0  0  0  0
   47.3410   33.6120   38.9760 C   0  0  0  0  0  0  0  0  0  0  0  0
   48.1640   34.1630   39.9310 C   0  0  0  0  0  0  0  0  0  0  0  0
   48.8970   35.2600   42.1920 S   0  0  0  0  0  0  0  0  0  0  0  0
   50.0490   34.3450   42.3770 O   0  0  0  0  0  0  0  0  0  0  0  0
   49.3570   36.5610   41.5290 O   0  0  0  0  0  0  0  0  0  0  0  0
   43.7431   36.6022   44.6980 H   0  0  0  0  0  0  0  0  0  0  0  0
   44.5106   36.3028   42.3471 H   0  0  0  0  0  0  0  0  0  0  0  0
   47.1384   33.6510   46.8139 H   0  0  0  0  0  0  0  0  0  0  0  0
   47.9689   31.8342   46.0123 H   0  0  0  0  0  0  0  0  0  0  0  0
   47.0508   32.2593   44.4782 H   0  0  0  0  0  0  0  0  0  0  0  0
   45.2534   30.8549   45.1114 H   0  0  0  0  0  0  0  0  0  0  0  0
   46.7547   29.9160   45.1400 H   0  0  0  0  0  0  0  0  0  0  0  0
   45.5485   29.4874   47.2225 H   0  0  0  0  0  0  0  0  0  0  0  0
   46.9837   30.5331   47.6024 H   0  0  0  0  0  0  0  0  0  0  0  0
   44.3711   31.2352   48.4871 H   0  0  0  0  0  0  0  0  0  0  0  0
   43.8406   33.7711   48.4541 H   0  0  0  0  0  0  0  0  0  0  0  0
   44.7104   34.9128   47.3945 H   0  0  0  0  0  0  0  0  0  0  0  0
   44.5657   33.5758   40.8425 H   0  0  0  0  0  0  0  0  0  0  0  0
   45.3196   32.9679   38.6119 H   0  0  0  0  0  0  0  0  0  0  0  0
   47.7158   33.3493   37.9757 H   0  0  0  0  0  0  0  0  0  0  0  0
   49.2205   34.3426   39.6827 H   0  0  0  0  0  0  0  0  0  0  0  0
   48.3532   35.5452   43.4167 H   0  0  0  0  0  0  0  0  0  0  0  0
  1  6  2  0
  2  1  1  0
  3  2  2  0
  3  4  1  0
  4  5  2  0
  5  6  1  0
  5  7  1  0
  7 12  1  0
  8  9  1  0
  8  7  1  0
  9 10  1  0
 10 11  1  0
 12 11  2  0
 12 13  1  0
 14 15  2  0
 14 20  1  0
 15  3  1  0
 16 15  1  0
 17 16  2  0
 18 17  1  0
 18 19  2  0
 19 14  1  0
 20 21  2  0
 22 20  2  0
  1 23  1  0
  2 24  1  0
  7 25  1  1
  8 26  1  0
  8 27  1  0
  9 28  1  0
  9 29  1  0
 10 30  1  0
 10 31  1  0
 11 32  1  0
 13 33  1  0
 13 34  1  0
 16 35  1  0
 17 36  1  0
 18 37  1  0
 19 38  1  0
 20 39  1  0
M  ISO  8  23  14  24  14  25  13  26  13  27  13  28  13  29  13  30  13
M  ISO  7  31  13  32  13  35  14  36  14  37  14  38  14  39  11
M  END
>  <minimizedAffinity>  (1) 
-6.96531487

>  <minimizedRMSD>  (1) 
1.60688853

$$$$
