
     RDKit          3D

 37 39  0  0  1  0  0  0  0  0999 V2000
   44.6270   35.5390   44.6130 C   0  0  0  0  0  0  0  0  0  0  0  0
   45.3040   35.5210   43.3670 C   0  0  0  0  0  0  0  0  0  0  0  0
   46.3720   34.6020   43.2110 C   0  0  0  0  0  0  0  0  0  0  0  0
   46.6960   33.7920   44.2490 N   0  0  0  0  0  0  0  0  0  0  0  0
   46.0180   33.8470   45.4190 C   0  0  0  0  0  0  0  0  0  0  0  0
   44.9890   34.7130   45.6090 N   0  0  0  0  0  0  0  0  0  0  0  0
   46.4430   32.9230   46.5060 C   0  0  2  0  0  0  0  0  0  0  0  0
   46.9680   31.6900   45.8510 C   0  0  0  0  0  0  0  0  0  0  0  0
   46.0890   30.5050   45.8840 C   0  0  0  0  0  0  0  0  0  0  0  0
   45.7550   30.2700   47.3450 C   0  0  0  0  0  0  0  0  0  0  0  0
   44.9660   31.3610   47.9340 C   0  0  0  0  0  0  0  0  0  0  0  0
   45.3630   32.7330   47.4630 C   0  0  0  0  0  0  0  0  0  0  0  0
   44.6680   33.8730   47.9590 N   0  0  0  0  0  0  0  0  0  0  0  0
   46.6430   33.9380   40.8280 C   0  0  0  0  0  0  0  0  0  0  0  0
   47.0370   34.6500   41.9410 C   0  0  0  0  0  0  0  0  0  0  0  0
   48.1620   35.4080   41.7070 C   0  0  0  0  0  0  0  0  0  0  0  0
   48.8270   35.4580   40.5040 C   0  0  0  0  0  0  0  0  0  0  0  0
   48.3930   34.7320   39.4300 C   0  0  0  0  0  0  0  0  0  0  0  0
   47.2860   33.9630   39.5970 C   0  0  0  0  0  0  0  0  0  0  0  0
   44.6020   32.3670   40.9560 N   0  0  0  0  0  0  0  0  0  0  0  0
   45.5030   33.0750   40.9000 C   0  0  0  0  0  0  0  0  0  0  0  0
   43.7930   36.2397   44.7664 H   0  0  0  0  0  0  0  0  0  0  0  0
   45.0106   36.1966   42.5500 H   0  0  0  0  0  0  0  0  0  0  0  0
   47.2579   33.3289   47.1234 H   0  0  0  0  0  0  0  0  0  0  0  0
   47.9108   31.4214   46.3499 H   0  0  0  0  0  0  0  0  0  0  0  0
   47.0732   31.9465   44.7865 H   0  0  0  0  0  0  0  0  0  0  0  0
   45.1711   30.6943   45.3081 H   0  0  0  0  0  0  0  0  0  0  0  0
   46.5800   29.6277   45.4377 H   0  0  0  0  0  0  0  0  0  0  0  0
   45.1793   29.3363   47.4276 H   0  0  0  0  0  0  0  0  0  0  0  0
   46.7054   30.2152   47.8962 H   0  0  0  0  0  0  0  0  0  0  0  0
   44.1550   31.1890   48.6570 H   0  0  0  0  0  0  0  0  0  0  0  0
   43.9015   33.7543   48.6367 H   0  0  0  0  0  0  0  0  0  0  0  0
   44.9319   34.8161   47.6400 H   0  0  0  0  0  0  0  0  0  0  0  0
   48.5551   36.0137   42.5368 H   0  0  0  0  0  0  0  0  0  0  0  0
   49.7209   36.0913   40.4047 H   0  0  0  0  0  0  0  0  0  0  0  0
   48.9211   34.7693   38.4658 H   0  0  0  0  0  0  0  0  0  0  0  0
   46.9000   33.3621   38.7604 H   0  0  0  0  0  0  0  0  0  0  0  0
  1  6  2  0
  2  1  1  0
  3  2  2  0
  3  4  1  0
  4  5  2  0
  5  6  1  0
  5  7  1  0
  7 12  1  0
  8  9  1  0
  8  7  1  0
  9 10  1  0
 10 11  1  0
 12 11  2  0
 12 13  1  0
 14 21  1  0
 14 15  2  0
 15  3  1  0
 16 15  1  0
 17 16  2  0
 18 19  2  0
 18 17  1  0
 19 14  1  0
 21 20  3  0
  1 22  1  0
  2 23  1  0
  7 24  1  1
  8 25  1  0
  8 26  1  0
  9 27  1  0
  9 28  1  0
 10 29  1  0
 10 30  1  0
 11 31  1  0
 13 32  1  0
 13 33  1  0
 16 34  1  0
 17 35  1  0
 18 36  1  0
 19 37  1  0
M  ISO  8  22  14  23  14  24  13  25  13  26  13  27  13  28  13  29  13
M  ISO  6  30  13  31  13  34  14  35  14  36  14  37  14
M  END
>  <minimizedAffinity>  (1) 
-6.76164627

>  <minimizedRMSD>  (1) 
1.18607128

$$$$
