
     RDKit          3D

 33 35  0  0  1  0  0  0  0  0999 V2000
   46.4230   33.0460   46.3750 C   0  0  2  0  0  0  0  0  0  0  0  0
   46.9940   31.8260   45.7340 C   0  0  0  0  0  0  0  0  0  0  0  0
   46.1300   30.6300   45.7510 C   0  0  0  0  0  0  0  0  0  0  0  0
   45.7980   30.3770   47.2120 C   0  0  0  0  0  0  0  0  0  0  0  0
   44.9890   31.4470   47.7820 C   0  0  0  0  0  0  0  0  0  0  0  0
   45.3400   32.8320   47.3220 C   0  0  0  0  0  0  0  0  0  0  0  0
   44.5740   35.5860   44.4210 C   0  0  0  0  0  0  0  0  0  0  0  0
   45.3290   35.6280   43.2180 C   0  0  0  0  0  0  0  0  0  0  0  0
   46.4560   34.7800   43.1020 C   0  0  0  0  0  0  0  0  0  0  0  0
   46.7630   33.9680   44.1470 N   0  0  0  0  0  0  0  0  0  0  0  0
   46.0210   33.9580   45.2700 C   0  0  0  0  0  0  0  0  0  0  0  0
   44.9290   34.7560   45.4250 N   0  0  0  0  0  0  0  0  0  0  0  0
   47.2480   34.7990   41.8890 C   0  0  0  0  0  0  0  0  0  0  0  0
   48.4450   35.4620   41.7560 C   0  0  0  0  0  0  0  0  0  0  0  0
   48.8190   35.2090   40.4800 N   0  0  0  0  0  0  0  0  0  0  0  0
   47.9150   34.4230   39.8220 C   0  0  0  0  0  0  0  0  0  0  0  0
   46.9440   34.1900   40.7470 N   0  0  0  0  0  0  0  0  0  0  0  0
   44.6310   33.9780   47.7880 N   0  0  0  0  0  0  0  0  0  0  0  0
   47.2027   33.4804   47.0180 H   0  0  0  0  0  0  0  0  0  0  0  0
   47.9285   31.5752   46.2573 H   0  0  0  0  0  0  0  0  0  0  0  0
   47.1315   32.0814   44.6729 H   0  0  0  0  0  0  0  0  0  0  0  0
   45.2105   30.8140   45.1760 H   0  0  0  0  0  0  0  0  0  0  0  0
   46.6308   29.7634   45.2947 H   0  0  0  0  0  0  0  0  0  0  0  0
   45.2422   29.4311   47.2911 H   0  0  0  0  0  0  0  0  0  0  0  0
   46.7437   30.3313   47.7720 H   0  0  0  0  0  0  0  0  0  0  0  0
   44.1778   31.2531   48.4992 H   0  0  0  0  0  0  0  0  0  0  0  0
   43.6932   36.2349   44.5352 H   0  0  0  0  0  0  0  0  0  0  0  0
   45.0445   36.3029   42.3973 H   0  0  0  0  0  0  0  0  0  0  0  0
   48.9759   36.0597   42.5116 H   0  0  0  0  0  0  0  0  0  0  0  0
   49.6854   35.5676   40.0538 H   0  0  0  0  0  0  0  0  0  0  0  0
   47.9614   34.0619   38.7840 H   0  0  0  0  0  0  0  0  0  0  0  0
   43.8576   33.8674   48.4592 H   0  0  0  0  0  0  0  0  0  0  0  0
   44.8922   34.9165   47.4534 H   0  0  0  0  0  0  0  0  0  0  0  0
  1  6  1  0
  2  3  1  0
  2  1  1  0
  3  4  1  0
  4  5  1  0
  6  5  2  0
  6 18  1  0
  7 12  2  0
  8  7  1  0
  9  8  2  0
  9 10  1  0
 10 11  2  0
 11 12  1  0
 11  1  1  0
 13  9  1  0
 14 13  2  0
 15 14  1  0
 16 15  1  0
 16 17  2  0
 17 13  1  0
  1 19  1  1
  2 20  1  0
  2 21  1  0
  3 22  1  0
  3 23  1  0
  4 24  1  0
  4 25  1  0
  5 26  1  0
  7 27  1  0
  8 28  1  0
 14 29  1  0
 15 30  1  0
 16 31  1  0
 18 32  1  0
 18 33  1  0
M  ISO  8  19  13  20  13  21  13  22  13  23  13  24  13  25  13  26  13
M  ISO  5  27  14  28  14  29  14  30   9  31  14
M  END
>  <minimizedAffinity>  (1) 
-6.52823162

>  <minimizedRMSD>  (1) 
1.13538933

$$$$
