
     RDKit          3D

 37 40  0  0  1  0  0  0  0  0999 V2000
   44.5360   35.5800   44.5570 C   0  0  0  0  0  0  0  0  0  0  0  0
   45.2560   35.7060   43.3550 C   0  0  0  0  0  0  0  0  0  0  0  0
   46.3930   34.8770   43.2050 C   0  0  0  0  0  0  0  0  0  0  0  0
   46.7160   34.0250   44.2100 N   0  0  0  0  0  0  0  0  0  0  0  0
   45.9980   33.9420   45.3350 C   0  0  0  0  0  0  0  0  0  0  0  0
   44.8890   34.7270   45.5220 N   0  0  0  0  0  0  0  0  0  0  0  0
   46.4250   32.9870   46.3890 C   0  0  2  0  0  0  0  0  0  0  0  0
   46.9320   31.7800   45.6700 C   0  0  0  0  0  0  0  0  0  0  0  0
   46.0510   30.5980   45.6880 C   0  0  0  0  0  0  0  0  0  0  0  0
   45.7620   30.3060   47.1460 C   0  0  0  0  0  0  0  0  0  0  0  0
   44.9840   31.3770   47.7840 C   0  0  0  0  0  0  0  0  0  0  0  0
   45.3620   32.7680   47.3590 C   0  0  0  0  0  0  0  0  0  0  0  0
   44.6830   33.8940   47.9000 N   0  0  0  0  0  0  0  0  0  0  0  0
   47.2090   34.9010   42.0440 N   0  0  0  0  0  0  0  0  0  0  0  0
   48.3860   35.4800   41.7100 C   0  0  0  0  0  0  0  0  0  0  0  0
   48.7130   35.1650   40.4480 N   0  0  0  0  0  0  0  0  0  0  0  0
   47.7420   34.3720   39.9470 C   0  0  0  0  0  0  0  0  0  0  0  0
   47.6620   33.8150   38.6990 C   0  0  0  0  0  0  0  0  0  0  0  0
   46.5850   33.0480   38.4220 N   0  0  0  0  0  0  0  0  0  0  0  0
   45.6460   32.8690   39.3870 C   0  0  0  0  0  0  0  0  0  0  0  0
   45.7730   33.4400   40.6000 N   0  0  0  0  0  0  0  0  0  0  0  0
   46.8050   34.2110   40.9530 C   0  0  0  0  0  0  0  0  0  0  0  0
   43.6466   36.2093   44.7081 H   0  0  0  0  0  0  0  0  0  0  0  0
   44.9503   36.4139   42.5705 H   0  0  0  0  0  0  0  0  0  0  0  0
   47.2416   33.3667   47.0207 H   0  0  0  0  0  0  0  0  0  0  0  0
   47.8896   31.4927   46.1288 H   0  0  0  0  0  0  0  0  0  0  0  0
   47.0091   32.0756   44.6133 H   0  0  0  0  0  0  0  0  0  0  0  0
   45.1159   30.8116   45.1496 H   0  0  0  0  0  0  0  0  0  0  0  0
   46.5260   29.7375   45.1942 H   0  0  0  0  0  0  0  0  0  0  0  0
   45.1930   29.3670   47.2130 H   0  0  0  0  0  0  0  0  0  0  0  0
   46.7251   30.2296   47.6720 H   0  0  0  0  0  0  0  0  0  0  0  0
   44.1873   31.1763   48.5154 H   0  0  0  0  0  0  0  0  0  0  0  0
   43.9281   33.7587   48.5876 H   0  0  0  0  0  0  0  0  0  0  0  0
   44.9460   34.8450   47.6043 H   0  0  0  0  0  0  0  0  0  0  0  0
   48.9868   36.1162   42.3765 H   0  0  0  0  0  0  0  0  0  0  0  0
   48.4473   33.9860   37.9480 H   0  0  0  0  0  0  0  0  0  0  0  0
   44.7651   32.2458   39.1736 H   0  0  0  0  0  0  0  0  0  0  0  0
  1  6  2  0
  2  1  1  0
  3  2  2  0
  3  4  1  0
  4  5  2  0
  5  6  1  0
  5  7  1  0
  7 12  1  0
  8  9  1  0
  8  7  1  0
  9 10  1  0
 10 11  1  0
 12 11  2  0
 12 13  1  0
 14  3  1  0
 15 14  1  0
 16 15  2  0
 17 16  1  0
 17 22  2  0
 18 17  1  0
 19 18  2  0
 19 20  1  0
 20 21  2  0
 21 22  1  0
 22 14  1  0
  1 23  1  0
  2 24  1  0
  7 25  1  1
  8 26  1  0
  8 27  1  0
  9 28  1  0
  9 29  1  0
 10 30  1  0
 10 31  1  0
 11 32  1  0
 13 33  1  0
 13 34  1  0
 15 35  1  0
 18 36  1  0
 20 37  1  0
M  ISO  8  23  14  24  14  25  13  26  13  27  13  28  13  29  13  30  13
M  ISO  5  31  13  32  13  35  14  36  14  37  14
M  END
>  <minimizedAffinity>  (1) 
-6.78604174

>  <minimizedRMSD>  (1) 
2.14038801

$$$$
