
     RDKit          3D

 27 28  0  0  1  0  0  0  0  0999 V2000
   46.4920   32.7610   46.7530 C   0  0  2  0  0  0  0  0  0  0  0  0
   47.0200   31.4260   46.3390 C   0  0  0  0  0  0  0  0  0  0  0  0
   46.0890   30.2900   46.4580 C   0  0  0  0  0  0  0  0  0  0  0  0
   45.6130   30.2940   47.9030 C   0  0  0  0  0  0  0  0  0  0  0  0
   44.8190   31.4900   48.2130 C   0  0  0  0  0  0  0  0  0  0  0  0
   45.3090   32.7550   47.5960 C   0  0  0  0  0  0  0  0  0  0  0  0
   44.9920   35.0700   44.2700 C   0  0  0  0  0  0  0  0  0  0  0  0
   45.8550   34.8980   43.1570 C   0  0  0  0  0  0  0  0  0  0  0  0
   46.9320   33.9890   43.2860 C   0  0  0  0  0  0  0  0  0  0  0  0
   47.0780   33.3340   44.4670 N   0  0  0  0  0  0  0  0  0  0  0  0
   46.2490   33.5180   45.4940 C   0  0  0  0  0  0  0  0  0  0  0  0
   45.1970   34.3870   45.4100 N   0  0  0  0  0  0  0  0  0  0  0  0
   48.0420   33.7470   41.9010 S   0  0  0  0  0  0  0  0  0  0  0  0
   44.6160   33.9730   47.8300 N   0  0  0  0  0  0  0  0  0  0  0  0
   47.2433   33.2295   47.4057 H   0  0  0  0  0  0  0  0  0  0  0  0
   47.8992   31.2054   46.9622 H   0  0  0  0  0  0  0  0  0  0  0  0
   47.2362   31.5166   45.2643 H   0  0  0  0  0  0  0  0  0  0  0  0
   45.2374   30.4193   45.7738 H   0  0  0  0  0  0  0  0  0  0  0  0
   46.5748   29.3390   46.1943 H   0  0  0  0  0  0  0  0  0  0  0  0
   44.9943   29.4012   48.0764 H   0  0  0  0  0  0  0  0  0  0  0  0
   46.4992   30.2939   48.5546 H   0  0  0  0  0  0  0  0  0  0  0  0
   43.9263   31.4546   48.8548 H   0  0  0  0  0  0  0  0  0  0  0  0
   44.1461   35.7696   44.1995 H   0  0  0  0  0  0  0  0  0  0  0  0
   45.6919   35.4543   42.2222 H   0  0  0  0  0  0  0  0  0  0  0  0
   49.3007   33.4726   42.3671 H   0  0  0  0  0  0  0  0  0  0  0  0
   43.7760   33.9813   48.4259 H   0  0  0  0  0  0  0  0  0  0  0  0
   44.9536   34.8477   47.4037 H   0  0  0  0  0  0  0  0  0  0  0  0
  1  6  1  0
  2  3  1  0
  2  1  1  0
  3  4  1  0
  4  5  1  0
  6 14  1  0
  6  5  2  0
  7 12  2  0
  8  9  2  0
  8  7  1  0
  9 10  1  0
 10 11  2  0
 11  1  1  0
 12 11  1  0
 13  9  1  0
  1 15  1  1
  2 16  1  0
  2 17  1  0
  3 18  1  0
  3 19  1  0
  4 20  1  0
  4 21  1  0
  5 22  1  0
  7 23  1  0
  8 24  1  0
 13 25  1  0
 14 26  1  0
 14 27  1  0
M  ISO  8  15  13  16  13  17  13  18  13  19  13  20  13  21  13  22  13
M  ISO  3  23  14  24  14  25  11
M  END
>  <minimizedAffinity>  (1) 
-5.18433094

>  <minimizedRMSD>  (1) 
0.0210156627

$$$$
