
     RDKit          3D

 48 51  0  0  1  0  0  0  0  0999 V2000
   44.5830   35.5720   44.6450 C   0  0  0  0  0  0  0  0  0  0  0  0
   45.2320   35.5780   43.3860 C   0  0  0  0  0  0  0  0  0  0  0  0
   46.3130   34.6620   43.1940 C   0  0  0  0  0  0  0  0  0  0  0  0
   46.6570   33.8430   44.2190 N   0  0  0  0  0  0  0  0  0  0  0  0
   46.0150   33.8710   45.3970 C   0  0  0  0  0  0  0  0  0  0  0  0
   44.9770   34.7310   45.6210 N   0  0  0  0  0  0  0  0  0  0  0  0
   46.4350   32.9590   46.4770 C   0  0  2  0  0  0  0  0  0  0  0  0
   46.9810   31.7390   45.7940 C   0  0  0  0  0  0  0  0  0  0  0  0
   46.1080   30.5420   45.8080 C   0  0  0  0  0  0  0  0  0  0  0  0
   45.8200   30.2770   47.2830 C   0  0  0  0  0  0  0  0  0  0  0  0
   45.0310   31.3380   47.8950 C   0  0  0  0  0  0  0  0  0  0  0  0
   45.3860   32.7190   47.4430 C   0  0  0  0  0  0  0  0  0  0  0  0
   44.6940   33.8510   47.9570 N   0  0  0  0  0  0  0  0  0  0  0  0
   46.9900   34.6490   41.9160 C   0  0  0  0  0  0  0  0  0  0  0  0
   48.1340   35.3720   41.7820 C   0  0  0  0  0  0  0  0  0  0  0  0
   48.7500   35.3230   40.5160 C   0  0  0  0  0  0  0  0  0  0  0  0
   48.1350   34.5560   39.5510 C   0  0  0  0  0  0  0  0  0  0  0  0
   46.9870   33.8340   39.6890 C   0  0  0  0  0  0  0  0  0  0  0  0
   46.4600   33.9330   40.9330 N   0  0  0  0  0  0  0  0  0  0  0  0
   45.0010   32.9620   38.5590 C   0  0  0  0  0  0  0  0  0  0  0  0
   46.3790   33.0380   38.6330 C   0  0  0  0  0  0  0  0  0  0  0  0
   47.1630   32.3700   37.7180 C   0  0  0  0  0  0  0  0  0  0  0  0
   46.6210   31.6070   36.7060 C   0  0  0  0  0  0  0  0  0  0  0  0
   45.2540   31.4900   36.5770 C   0  0  0  0  0  0  0  0  0  0  0  0
   44.5110   32.1750   37.5130 C   0  0  0  0  0  0  0  0  0  0  0  0
   43.9260   33.7570   39.6510 S   0  0  0  0  0  0  0  0  0  0  0  0
   42.8550   34.4560   38.8420 O   0  0  0  0  0  0  0  0  0  0  0  0
   43.1780   32.7210   40.4770 O   0  0  0  0  0  0  0  0  0  0  0  0
   43.7467   36.2627   44.8282 H   0  0  0  0  0  0  0  0  0  0  0  0
   44.9159   36.2625   42.5851 H   0  0  0  0  0  0  0  0  0  0  0  0
   47.2215   33.3973   47.1089 H   0  0  0  0  0  0  0  0  0  0  0  0
   47.9268   31.4716   46.2879 H   0  0  0  0  0  0  0  0  0  0  0  0
   47.0890   32.0152   44.7347 H   0  0  0  0  0  0  0  0  0  0  0  0
   45.1739   30.7389   45.2615 H   0  0  0  0  0  0  0  0  0  0  0  0
   46.5841   29.6790   45.3196 H   0  0  0  0  0  0  0  0  0  0  0  0
   45.2666   29.3303   47.3702 H   0  0  0  0  0  0  0  0  0  0  0  0
   46.7846   30.2305   47.8096 H   0  0  0  0  0  0  0  0  0  0  0  0
   44.2377   31.1394   48.6306 H   0  0  0  0  0  0  0  0  0  0  0  0
   43.9399   33.7240   48.6470 H   0  0  0  0  0  0  0  0  0  0  0  0
   44.9471   34.7974   47.6390 H   0  0  0  0  0  0  0  0  0  0  0  0
   48.5531   35.9596   42.6121 H   0  0  0  0  0  0  0  0  0  0  0  0
   49.6799   35.8723   40.3075 H   0  0  0  0  0  0  0  0  0  0  0  0
   48.6216   34.5226   38.5651 H   0  0  0  0  0  0  0  0  0  0  0  0
   48.2573   32.4481   37.7976 H   0  0  0  0  0  0  0  0  0  0  0  0
   47.2835   31.0885   35.9973 H   0  0  0  0  0  0  0  0  0  0  0  0
   44.7880   30.8906   35.7810 H   0  0  0  0  0  0  0  0  0  0  0  0
   43.4172   32.0942   37.4284 H   0  0  0  0  0  0  0  0  0  0  0  0
   44.6520   34.6126   40.4370 H   0  0  0  0  0  0  0  0  0  0  0  0
  1  6  2  0
  2  1  1  0
  3  2  2  0
  3  4  1  0
  4  5  2  0
  5  6  1  0
  5  7  1  0
  7 12  1  0
  8  9  1  0
  8  7  1  0
  9 10  1  0
 10 11  1  0
 12 11  2  0
 12 13  1  0
 14  3  1  0
 15 14  2  0
 16 15  1  0
 17 18  1  0
 17 16  2  0
 18 19  2  0
 19 14  1  0
 20 21  2  0
 20 26  1  0
 21 18  1  0
 22 21  1  0
 23 22  2  0
 24 23  1  0
 24 25  2  0
 25 20  1  0
 26 28  2  0
 27 26  2  0
  1 29  1  0
  2 30  1  0
  7 31  1  1
  8 32  1  0
  8 33  1  0
  9 34  1  0
  9 35  1  0
 10 36  1  0
 10 37  1  0
 11 38  1  0
 13 39  1  0
 13 40  1  0
 15 41  1  0
 16 42  1  0
 17 43  1  0
 22 44  1  0
 23 45  1  0
 24 46  1  0
 25 47  1  0
 26 48  1  0
M  ISO  8  29  14  30  14  31  13  32  13  33  13  34  13  35  13  36  13
M  ISO  8  37  13  38  13  41  14  42  14  43  14  44  14  45  14  46  14
M  ISO  2  47  14  48  11
M  END
>  <minimizedAffinity>  (1) 
-7.38814545

>  <minimizedRMSD>  (1) 
0.643219888

$$$$
