
     RDKit          3D

 43 46  0  0  1  0  0  0  0  0999 V2000
   44.5820   35.5920   44.6160 C   0  0  0  0  0  0  0  0  0  0  0  0
   45.2230   35.6100   43.3690 C   0  0  0  0  0  0  0  0  0  0  0  0
   46.3100   34.6960   43.1780 C   0  0  0  0  0  0  0  0  0  0  0  0
   46.6560   33.8720   44.2020 N   0  0  0  0  0  0  0  0  0  0  0  0
   46.0100   33.8910   45.3830 C   0  0  0  0  0  0  0  0  0  0  0  0
   44.9610   34.7600   45.5930 N   0  0  0  0  0  0  0  0  0  0  0  0
   46.4250   32.9740   46.4670 C   0  0  2  0  0  0  0  0  0  0  0  0
   46.9660   31.7490   45.7590 C   0  0  0  0  0  0  0  0  0  0  0  0
   46.0940   30.5630   45.7880 C   0  0  0  0  0  0  0  0  0  0  0  0
   45.8150   30.2930   47.2660 C   0  0  0  0  0  0  0  0  0  0  0  0
   45.0140   31.3650   47.8770 C   0  0  0  0  0  0  0  0  0  0  0  0
   45.3800   32.7280   47.4210 C   0  0  0  0  0  0  0  0  0  0  0  0
   44.6810   33.8750   47.9310 N   0  0  0  0  0  0  0  0  0  0  0  0
   46.9930   34.6780   41.8970 C   0  0  0  0  0  0  0  0  0  0  0  0
   48.1600   35.3720   41.7830 C   0  0  0  0  0  0  0  0  0  0  0  0
   48.7830   35.3220   40.5220 C   0  0  0  0  0  0  0  0  0  0  0  0
   48.1440   34.5760   39.5420 C   0  0  0  0  0  0  0  0  0  0  0  0
   46.9830   33.8860   39.6590 C   0  0  0  0  0  0  0  0  0  0  0  0
   46.4100   33.9610   40.8980 N   0  0  0  0  0  0  0  0  0  0  0  0
   46.4070   33.1660   38.6460 O   0  0  0  0  0  0  0  0  0  0  0  0
   47.1240   32.8410   37.5260 C   0  0  0  0  0  0  0  0  0  0  0  0
   47.8580   32.5390   36.4850 C   0  0  0  0  0  0  0  0  0  0  0  0
   47.4120   32.1910   35.2830 C   0  0  0  0  0  0  0  0  0  0  0  0
   46.0460   32.1460   35.1220 C   0  0  0  0  0  0  0  0  0  0  0  0
   45.4560   32.6550   36.8790 S   0  0  0  0  0  0  0  0  0  0  0  0
   43.7439   36.2813   44.7961 H   0  0  0  0  0  0  0  0  0  0  0  0
   44.9048   36.2969   42.5709 H   0  0  0  0  0  0  0  0  0  0  0  0
   47.2060   33.4060   47.1100 H   0  0  0  0  0  0  0  0  0  0  0  0
   47.9216   31.4786   46.2320 H   0  0  0  0  0  0  0  0  0  0  0  0
   47.0592   32.0293   44.6994 H   0  0  0  0  0  0  0  0  0  0  0  0
   45.1554   30.7635   45.2506 H   0  0  0  0  0  0  0  0  0  0  0  0
   46.5668   29.6986   45.2989 H   0  0  0  0  0  0  0  0  0  0  0  0
   45.2671   29.3435   47.3570 H   0  0  0  0  0  0  0  0  0  0  0  0
   46.7798   30.2456   47.7923 H   0  0  0  0  0  0  0  0  0  0  0  0
   44.2143   31.1727   48.6075 H   0  0  0  0  0  0  0  0  0  0  0  0
   43.9229   33.7529   48.6175 H   0  0  0  0  0  0  0  0  0  0  0  0
   44.9380   34.8194   47.6101 H   0  0  0  0  0  0  0  0  0  0  0  0
   48.5886   35.9363   42.6243 H   0  0  0  0  0  0  0  0  0  0  0  0
   49.7286   35.8477   40.3234 H   0  0  0  0  0  0  0  0  0  0  0  0
   48.6353   34.5404   38.5584 H   0  0  0  0  0  0  0  0  0  0  0  0
   48.9492   32.5770   36.6184 H   0  0  0  0  0  0  0  0  0  0  0  0
   48.0995   31.9511   34.4585 H   0  0  0  0  0  0  0  0  0  0  0  0
   45.4538   31.8890   34.2314 H   0  0  0  0  0  0  0  0  0  0  0  0
  1  6  2  0
  2  1  1  0
  3  2  2  0
  3  4  1  0
  4  5  2  0
  5  6  1  0
  5  7  1  0
  7 12  1  0
  8  9  1  0
  8  7  1  0
  9 10  1  0
 10 11  1  0
 12 11  2  0
 12 13  1  0
 14  3  1  0
 15 14  2  0
 16 15  1  0
 17 18  1  0
 17 16  2  0
 18 19  2  0
 19 14  1  0
 20 18  1  0
 21 20  1  0
 22 21  2  0
 23 22  1  0
 24 23  2  0
 24 25  1  0
 25 21  1  0
  1 26  1  0
  2 27  1  0
  7 28  1  1
  8 29  1  0
  8 30  1  0
  9 31  1  0
  9 32  1  0
 10 33  1  0
 10 34  1  0
 11 35  1  0
 13 36  1  0
 13 37  1  0
 15 38  1  0
 16 39  1  0
 17 40  1  0
 22 41  1  0
 23 42  1  0
 24 43  1  0
M  ISO  8  26  14  27  14  28  13  29  13  30  13  31  13  32  13  33  13
M  ISO  8  34  13  35  13  38  14  39  14  40  14  41  14  42  14  43  14
M  END
>  <minimizedAffinity>  (1) 
-7.15489626

>  <minimizedRMSD>  (1) 
0.321286738

$$$$
