
     RDKit          3D

 46 49  0  0  1  0  0  0  0  0999 V2000
   44.5590   35.5820   44.6230 C   0  0  0  0  0  0  0  0  0  0  0  0
   45.2380   35.6120   43.3860 C   0  0  0  0  0  0  0  0  0  0  0  0
   46.3450   34.7160   43.2120 C   0  0  0  0  0  0  0  0  0  0  0  0
   46.6850   33.8900   44.2310 N   0  0  0  0  0  0  0  0  0  0  0  0
   46.0110   33.8960   45.3890 C   0  0  0  0  0  0  0  0  0  0  0  0
   44.9430   34.7380   45.6000 N   0  0  0  0  0  0  0  0  0  0  0  0
   46.4270   32.9730   46.4750 C   0  0  2  0  0  0  0  0  0  0  0  0
   46.9530   31.7470   45.7590 C   0  0  0  0  0  0  0  0  0  0  0  0
   46.0850   30.5620   45.7680 C   0  0  0  0  0  0  0  0  0  0  0  0
   45.7850   30.2830   47.2400 C   0  0  0  0  0  0  0  0  0  0  0  0
   45.0040   31.3430   47.8550 C   0  0  0  0  0  0  0  0  0  0  0  0
   45.3800   32.7140   47.4220 C   0  0  0  0  0  0  0  0  0  0  0  0
   44.6960   33.8550   47.9470 N   0  0  0  0  0  0  0  0  0  0  0  0
   47.0610   34.7230   41.9480 C   0  0  0  0  0  0  0  0  0  0  0  0
   48.1790   35.4710   41.8380 C   0  0  0  0  0  0  0  0  0  0  0  0
   48.8310   35.4460   40.5920 C   0  0  0  0  0  0  0  0  0  0  0  0
   48.2550   34.6580   39.6110 C   0  0  0  0  0  0  0  0  0  0  0  0
   47.1150   33.8980   39.7250 C   0  0  0  0  0  0  0  0  0  0  0  0
   46.5380   33.9670   40.9520 N   0  0  0  0  0  0  0  0  0  0  0  0
   46.6240   33.1520   38.6820 O   0  0  0  0  0  0  0  0  0  0  0  0
   47.5280   32.6360   37.7630 C   0  0  0  0  0  0  0  0  0  0  0  0
   47.7450   33.1890   36.5180 C   0  0  0  0  0  0  0  0  0  0  0  0
   48.6720   32.5800   35.6940 C   0  0  0  0  0  0  0  0  0  0  0  0
   49.3480   31.4540   36.1260 C   0  0  0  0  0  0  0  0  0  0  0  0
   49.1270   30.9030   37.3760 C   0  0  0  0  0  0  0  0  0  0  0  0
   48.1950   31.5120   38.2090 C   0  0  0  0  0  0  0  0  0  0  0  0
   43.7060   36.2559   44.7912 H   0  0  0  0  0  0  0  0  0  0  0  0
   44.9293   36.2982   42.5836 H   0  0  0  0  0  0  0  0  0  0  0  0
   47.2076   33.4074   47.1169 H   0  0  0  0  0  0  0  0  0  0  0  0
   47.9062   31.4670   46.2312 H   0  0  0  0  0  0  0  0  0  0  0  0
   47.0365   32.0397   44.7019 H   0  0  0  0  0  0  0  0  0  0  0  0
   45.1540   30.7639   45.2180 H   0  0  0  0  0  0  0  0  0  0  0  0
   46.5665   29.7013   45.2807 H   0  0  0  0  0  0  0  0  0  0  0  0
   45.2222   29.3408   47.3137 H   0  0  0  0  0  0  0  0  0  0  0  0
   46.7453   30.2205   47.7728 H   0  0  0  0  0  0  0  0  0  0  0  0
   44.2011   31.1468   48.5808 H   0  0  0  0  0  0  0  0  0  0  0  0
   43.9355   33.7302   48.6303 H   0  0  0  0  0  0  0  0  0  0  0  0
   44.9639   34.8016   47.6418 H   0  0  0  0  0  0  0  0  0  0  0  0
   48.5604   36.0689   42.6789 H   0  0  0  0  0  0  0  0  0  0  0  0
   49.7497   36.0220   40.4072 H   0  0  0  0  0  0  0  0  0  0  0  0
   48.7636   34.6375   38.6358 H   0  0  0  0  0  0  0  0  0  0  0  0
   47.1978   34.0857   36.1918 H   0  0  0  0  0  0  0  0  0  0  0  0
   48.8723   32.9913   34.6936 H   0  0  0  0  0  0  0  0  0  0  0  0
   50.0827   30.9825   35.4568 H   0  0  0  0  0  0  0  0  0  0  0  0
   49.6745   30.0064   37.7022 H   0  0  0  0  0  0  0  0  0  0  0  0
   47.9917   31.1039   39.2100 H   0  0  0  0  0  0  0  0  0  0  0  0
  1  6  2  0
  2  1  1  0
  3  2  2  0
  3  4  1  0
  4  5  2  0
  5  6  1  0
  5  7  1  0
  7 12  1  0
  8  9  1  0
  8  7  1  0
  9 10  1  0
 10 11  1  0
 12 11  2  0
 12 13  1  0
 14  3  1  0
 15 14  2  0
 16 15  1  0
 17 18  1  0
 17 16  2  0
 18 19  2  0
 19 14  1  0
 20 18  1  0
 21 26  1  0
 21 20  1  0
 22 21  2  0
 23 24  2  0
 23 22  1  0
 24 25  1  0
 25 26  2  0
  1 27  1  0
  2 28  1  0
  7 29  1  1
  8 30  1  0
  8 31  1  0
  9 32  1  0
  9 33  1  0
 10 34  1  0
 10 35  1  0
 11 36  1  0
 13 37  1  0
 13 38  1  0
 15 39  1  0
 16 40  1  0
 17 41  1  0
 22 42  1  0
 23 43  1  0
 24 44  1  0
 25 45  1  0
 26 46  1  0
M  ISO  8  27  14  28  14  29  13  30  13  31  13  32  13  33  13  34  13
M  ISO  8  35  13  36  13  39  14  40  14  41  14  42  14  43  14  44  14
M  ISO  2  45  14  46  14
M  END
>  <minimizedAffinity>  (1) 
-7.14834595

>  <minimizedRMSD>  (1) 
0.695661843

$$$$
