
     RDKit          3D

 30 32  0  0  0  0  0  0  0  0999 V2000
   44.5570   35.8580   44.4220 C   0  0  0  0  0  0  0  0  0  0  0  0
   45.2650   35.8170   43.2070 C   0  0  0  0  0  0  0  0  0  0  0  0
   46.2380   34.8310   43.1180 C   0  0  0  0  0  0  0  0  0  0  0  0
   46.4610   33.9740   44.1680 N   0  0  0  0  0  0  0  0  0  0  0  0
   45.7430   34.0600   45.3220 C   0  0  0  0  0  0  0  0  0  0  0  0
   44.7940   35.0080   45.4340 N   0  0  0  0  0  0  0  0  0  0  0  0
   47.0480   34.6650   41.8620 C   0  0  0  0  0  0  0  0  0  0  0  0
   48.3160   35.4900   41.8740 C   0  0  0  0  0  0  0  0  0  0  0  0
   48.3110   33.9420   41.9420 C   0  0  0  0  0  0  0  0  0  0  0  0
   46.1460   33.0380   46.3240 C   0  0  0  0  0  0  0  0  0  0  0  0
   45.2460   33.0590   47.5280 C   0  0  0  0  0  0  0  0  0  0  0  0
   45.1230   31.6470   48.0190 C   0  0  0  0  0  0  0  0  0  0  0  0
   46.0110   30.8370   47.1290 C   0  0  0  0  0  0  0  0  0  0  0  0
   46.0650   31.6320   45.8330 C   0  0  0  0  0  0  0  0  0  0  0  0
   43.7743   36.6205   44.5486 H   0  0  0  0  0  0  0  0  0  0  0  0
   45.0615   36.5181   42.3841 H   0  0  0  0  0  0  0  0  0  0  0  0
   46.1816   34.5464   41.1947 H   0  0  0  0  0  0  0  0  0  0  0  0
   48.6540   36.0081   40.9644 H   0  0  0  0  0  0  0  0  0  0  0  0
   48.7251   36.3120   42.4797 H   0  0  0  0  0  0  0  0  0  0  0  0
   48.5939   33.4324   42.8749 H   0  0  0  0  0  0  0  0  0  0  0  0
   48.7832   33.1381   41.3582 H   0  0  0  0  0  0  0  0  0  0  0  0
   47.1872   33.3100   46.5519 H   0  0  0  0  0  0  0  0  0  0  0  0
   45.6827   33.6937   48.3132 H   0  0  0  0  0  0  0  0  0  0  0  0
   44.2584   33.4680   47.2683 H   0  0  0  0  0  0  0  0  0  0  0  0
   45.4559   31.5730   49.0648 H   0  0  0  0  0  0  0  0  0  0  0  0
   44.0819   31.2932   47.9889 H   0  0  0  0  0  0  0  0  0  0  0  0
   47.0150   30.7360   47.5669 H   0  0  0  0  0  0  0  0  0  0  0  0
   45.6377   29.8130   46.9801 H   0  0  0  0  0  0  0  0  0  0  0  0
   45.1589   31.4725   45.2300 H   0  0  0  0  0  0  0  0  0  0  0  0
   46.9001   31.3466   45.1763 H   0  0  0  0  0  0  0  0  0  0  0  0
  1  6  2  0
  2  1  1  0
  3  2  2  0
  3  4  1  0
  4  5  2  0
  5  6  1  0
  5 10  1  0
  7  8  1  0
  7  9  1  0
  7  3  1  0
  8  9  1  0
 10 11  1  0
 11 12  1  0
 13 12  1  0
 14 10  1  0
 14 13  1  0
  1 15  1  0
  2 16  1  0
  7 17  1  0
  8 18  1  0
  8 19  1  0
  9 20  1  0
  9 21  1  0
 10 22  1  0
 11 23  1  0
 11 24  1  0
 12 25  1  0
 12 26  1  0
 13 27  1  0
 13 28  1  0
 14 29  1  0
 14 30  1  0
M  ISO  8  15  14  16  14  17  13  18  13  19  13  20  13  21  13  22  13
M  ISO  8  23  13  24  13  25  13  26  13  27  13  28  13  29  13  30  13
M  END
>  <minimizedAffinity>  (1) 
-4.97840309

>  <minimizedRMSD>  (1) 
0.224216461

$$$$
