
     RDKit          3D

 24 26  0  0  0  0  0  0  0  0999 V2000
   44.5850   36.0310   44.2940 C   0  0  0  0  0  0  0  0  0  0  0  0
   45.3590   35.8300   43.1380 C   0  0  0  0  0  0  0  0  0  0  0  0
   46.2380   34.7600   43.1800 C   0  0  0  0  0  0  0  0  0  0  0  0
   46.3240   33.9660   44.2970 N   0  0  0  0  0  0  0  0  0  0  0  0
   45.5500   34.2010   45.3950 C   0  0  0  0  0  0  0  0  0  0  0  0
   44.6870   35.2340   45.3830 N   0  0  0  0  0  0  0  0  0  0  0  0
   47.1010   34.4250   41.9980 C   0  0  0  0  0  0  0  0  0  0  0  0
   48.1980   35.4370   41.7540 C   0  0  0  0  0  0  0  0  0  0  0  0
   48.4690   33.9820   42.2260 C   0  0  0  0  0  0  0  0  0  0  0  0
   45.7730   33.2580   46.4870 C   0  0  0  0  0  0  0  0  0  0  0  0
   46.8820   32.4080   46.4510 C   0  0  0  0  0  0  0  0  0  0  0  0
   46.8640   31.6440   47.5580 N   0  0  0  0  0  0  0  0  0  0  0  0
   45.7640   32.0040   48.2810 C   0  0  0  0  0  0  0  0  0  0  0  0
   45.0970   32.9940   47.6210 N   0  0  0  0  0  0  0  0  0  0  0  0
   43.8701   36.8668   44.3142 H   0  0  0  0  0  0  0  0  0  0  0  0
   45.2723   36.4812   42.2557 H   0  0  0  0  0  0  0  0  0  0  0  0
   46.2825   33.9835   41.4105 H   0  0  0  0  0  0  0  0  0  0  0  0
   48.4529   35.7492   40.7305 H   0  0  0  0  0  0  0  0  0  0  0  0
   48.4423   36.4487   42.1101 H   0  0  0  0  0  0  0  0  0  0  0  0
   48.8219   33.7936   43.2507 H   0  0  0  0  0  0  0  0  0  0  0  0
   49.0868   33.1491   41.8591 H   0  0  0  0  0  0  0  0  0  0  0  0
   47.6394   32.3703   45.6542 H   0  0  0  0  0  0  0  0  0  0  0  0
   47.5525   30.9215   47.8126 H   0  0  0  0  0  0  0  0  0  0  0  0
   45.4629   31.5652   49.2437 H   0  0  0  0  0  0  0  0  0  0  0  0
  1  6  2  0
  2  3  2  0
  2  1  1  0
  3  4  1  0
  4  5  2  0
  5 10  1  0
  6  5  1  0
  7  9  1  0
  7  3  1  0
  8  7  1  0
  8  9  1  0
 10 14  1  0
 11 10  2  0
 11 12  1  0
 12 13  1  0
 14 13  2  0
  1 15  1  0
  2 16  1  0
  7 17  1  0
  8 18  1  0
  8 19  1  0
  9 20  1  0
  9 21  1  0
 11 22  1  0
 12 23  1  0
 13 24  1  0
M  ISO  8  15  14  16  14  17  13  18  13  19  13  20  13  21  13  22  14
M  ISO  2  23   9  24  14
M  END
>  <minimizedAffinity>  (1) 
-4.86014223

>  <minimizedRMSD>  (1) 
0.475239307

$$$$
