
     RDKit          3D

 30 32  0  0  0  0  0  0  0  0999 V2000
   44.9420   35.1300   44.4540 C   0  0  0  0  0  0  0  0  0  0  0  0
   45.8630   35.0820   43.3880 C   0  0  0  0  0  0  0  0  0  0  0  0
   46.9050   34.1960   43.5310 C   0  0  0  0  0  0  0  0  0  0  0  0
   47.0330   33.4050   44.6560 N   0  0  0  0  0  0  0  0  0  0  0  0
   46.1020   33.4970   45.6610 C   0  0  0  0  0  0  0  0  0  0  0  0
   45.0700   34.3510   45.5580 N   0  0  0  0  0  0  0  0  0  0  0  0
   46.2710   32.6200   46.8290 C   0  0  0  0  0  0  0  0  0  0  0  0
   45.3250   32.6930   47.8310 C   0  0  0  0  0  0  0  0  0  0  0  0
   45.4250   31.8890   48.9480 C   0  0  0  0  0  0  0  0  0  0  0  0
   46.5040   31.0150   49.0120 C   0  0  0  0  0  0  0  0  0  0  0  0
   47.4300   30.9840   47.9700 C   0  0  0  0  0  0  0  0  0  0  0  0
   47.3140   31.7840   46.8790 N   0  0  0  0  0  0  0  0  0  0  0  0
   49.5170   30.5850   48.9790 C   0  0  0  0  0  0  0  0  0  0  0  0
   49.3400   31.6570   49.5990 O   0  0  0  0  0  0  0  0  0  0  0  0
   48.5490   30.0760   48.0400 N   0  0  0  0  0  0  0  0  0  0  0  0
   47.9230   34.0360   42.4430 C   0  0  0  0  0  0  0  0  0  0  0  0
   48.2060   35.3330   41.6840 C   0  0  0  0  0  0  0  0  0  0  0  0
   49.2350   34.6040   42.6090 C   0  0  0  0  0  0  0  0  0  0  0  0
   44.0901   35.8228   44.3889 H   0  0  0  0  0  0  0  0  0  0  0  0
   45.7547   35.7153   42.4952 H   0  0  0  0  0  0  0  0  0  0  0  0
   44.4851   33.3973   47.7386 H   0  0  0  0  0  0  0  0  0  0  0  0
   44.6802   31.9378   49.7560 H   0  0  0  0  0  0  0  0  0  0  0  0
   46.6267   30.3511   49.8804 H   0  0  0  0  0  0  0  0  0  0  0  0
   50.4399   30.0131   49.1558 H   0  0  0  0  0  0  0  0  0  0  0  0
   48.6416   29.2017   47.5035 H   0  0  0  0  0  0  0  0  0  0  0  0
   47.6073   33.0151   42.1820 H   0  0  0  0  0  0  0  0  0  0  0  0
   48.3311   35.3290   40.5911 H   0  0  0  0  0  0  0  0  0  0  0  0
   47.7596   36.3358   41.6123 H   0  0  0  0  0  0  0  0  0  0  0  0
   49.5188   35.0531   43.5722 H   0  0  0  0  0  0  0  0  0  0  0  0
   50.2606   34.2288   42.4770 H   0  0  0  0  0  0  0  0  0  0  0  0
  1  6  2  0
  2  3  2  0
  2  1  1  0
  3  4  1  0
  4  5  2  0
  5  7  1  0
  6  5  1  0
  7 12  1  0
  7  8  2  0
  8  9  1  0
  9 10  2  0
 11 15  1  0
 11 10  1  0
 12 11  2  0
 13 14  2  0
 15 13  1  0
 16 18  1  0
 16  3  1  0
 17 16  1  0
 17 18  1  0
  1 19  1  0
  2 20  1  0
  8 21  1  0
  9 22  1  0
 10 23  1  0
 13 24  1  0
 15 25  1  0
 16 26  1  0
 17 27  1  0
 17 28  1  0
 18 29  1  0
 18 30  1  0
M  ISO  8  19  14  20  14  21  14  22  14  23  14  24   6  26  13  27  13
M  ISO  3  28  13  29  13  30  13
M  END
>  <minimizedAffinity>  (1) 
-5.97605515

>  <minimizedRMSD>  (1) 
0.885228932

$$$$
