
     RDKit          3D

 28 30  0  0  0  0  0  0  0  0999 V2000
   44.5550   35.8750   44.6100 C   0  0  0  0  0  0  0  0  0  0  0  0
   45.2260   35.8580   43.3650 C   0  0  0  0  0  0  0  0  0  0  0  0
   46.1470   34.8490   43.1990 C   0  0  0  0  0  0  0  0  0  0  0  0
   46.3920   33.9180   44.1890 N   0  0  0  0  0  0  0  0  0  0  0  0
   45.7120   33.9880   45.3680 C   0  0  0  0  0  0  0  0  0  0  0  0
   44.8080   34.9540   45.5670 N   0  0  0  0  0  0  0  0  0  0  0  0
   45.9870   32.9620   46.3850 C   0  0  0  0  0  0  0  0  0  0  0  0
   45.2430   33.0060   47.5580 C   0  0  0  0  0  0  0  0  0  0  0  0
   45.4580   32.0550   48.5340 C   0  0  0  0  0  0  0  0  0  0  0  0
   46.4220   31.0850   48.2920 C   0  0  0  0  0  0  0  0  0  0  0  0
   47.1400   31.0900   47.0930 C   0  0  0  0  0  0  0  0  0  0  0  0
   46.9170   32.0360   46.1360 N   0  0  0  0  0  0  0  0  0  0  0  0
   48.1470   30.0610   46.8610 C   0  0  0  0  0  0  0  0  0  0  0  0
   49.0590   29.8680   47.6960 O   0  0  0  0  0  0  0  0  0  0  0  0
   46.8970   34.7090   41.9050 C   0  0  0  0  0  0  0  0  0  0  0  0
   48.2590   35.4030   41.9190 C   0  0  0  0  0  0  0  0  0  0  0  0
   48.0500   33.8540   41.8400 C   0  0  0  0  0  0  0  0  0  0  0  0
   43.8076   36.6582   44.8048 H   0  0  0  0  0  0  0  0  0  0  0  0
   45.0248   36.6026   42.5807 H   0  0  0  0  0  0  0  0  0  0  0  0
   44.4888   33.7927   47.7070 H   0  0  0  0  0  0  0  0  0  0  0  0
   44.8849   32.0647   49.4728 H   0  0  0  0  0  0  0  0  0  0  0  0
   46.6211   30.3100   49.0468 H   0  0  0  0  0  0  0  0  0  0  0  0
   48.1047   29.4509   45.9467 H   0  0  0  0  0  0  0  0  0  0  0  0
   45.9926   34.7452   41.2799 H   0  0  0  0  0  0  0  0  0  0  0  0
   48.6112   35.9684   41.0436 H   0  0  0  0  0  0  0  0  0  0  0  0
   48.7946   36.1100   42.5695 H   0  0  0  0  0  0  0  0  0  0  0  0
   48.3117   33.2220   42.7015 H   0  0  0  0  0  0  0  0  0  0  0  0
   48.3870   33.0640   41.1527 H   0  0  0  0  0  0  0  0  0  0  0  0
  1  6  2  0
  2  1  1  0
  3  2  2  0
  3  4  1  0
  4  5  2  0
  5  6  1  0
  5  7  1  0
  7  8  2  0
  8  9  1  0
 10  9  2  0
 11 10  1  0
 12  7  1  0
 12 11  2  0
 13 11  1  0
 13 14  2  0
 15 16  1  0
 15  3  1  0
 17 15  1  0
 17 16  1  0
  1 18  1  0
  2 19  1  0
  8 20  1  0
  9 21  1  0
 10 22  1  0
 13 23  1  0
 15 24  1  0
 16 25  1  0
 16 26  1  0
 17 27  1  0
 17 28  1  0
M  ISO  8  18  14  19  14  20  14  21  14  22  14  23   6  24  13  25  13
M  ISO  3  26  13  27  13  28  13
M  END
>  <minimizedAffinity>  (1) 
-5.2923522

>  <minimizedRMSD>  (1) 
0.273618281

$$$$
