
     RDKit          3D

 21 22  0  0  0  0  0  0  0  0999 V2000
   44.7890   33.5310   47.4670 F   0  0  0  0  0  0  0  0  0  0  0  0
   45.6690   32.6230   46.9830 C   0  0  0  0  0  0  0  0  0  0  0  0
   46.1820   32.8240   45.7060 C   0  0  0  0  0  0  0  0  0  0  0  0
   47.0740   31.9110   45.2060 C   0  0  0  0  0  0  0  0  0  0  0  0
   47.4440   30.8240   45.9630 C   0  0  0  0  0  0  0  0  0  0  0  0
   46.9510   30.6040   47.2240 C   0  0  0  0  0  0  0  0  0  0  0  0
   46.0460   31.5320   47.7310 C   0  0  0  0  0  0  0  0  0  0  0  0
   44.4960   35.9230   44.7420 C   0  0  0  0  0  0  0  0  0  0  0  0
   45.0010   36.1760   43.4560 C   0  0  0  0  0  0  0  0  0  0  0  0
   45.9210   35.2640   42.9460 C   0  0  0  0  0  0  0  0  0  0  0  0
   46.2760   34.1910   43.7100 N   0  0  0  0  0  0  0  0  0  0  0  0
   45.7660   33.9900   44.9340 C   0  0  0  0  0  0  0  0  0  0  0  0
   44.8820   34.8510   45.4460 N   0  0  0  0  0  0  0  0  0  0  0  0
   45.3130   31.3830   49.3660 S   0  0  0  0  0  0  0  0  0  0  0  0
   47.4941   32.0479   44.1986 H   0  0  0  0  0  0  0  0  0  0  0  0
   48.1616   30.1046   45.5418 H   0  0  0  0  0  0  0  0  0  0  0  0
   47.2593   29.7272   47.8124 H   0  0  0  0  0  0  0  0  0  0  0  0
   43.7674   36.6207   45.1806 H   0  0  0  0  0  0  0  0  0  0  0  0
   44.6836   37.0560   42.8773 H   0  0  0  0  0  0  0  0  0  0  0  0
   46.3540   35.4061   41.9448 H   0  0  0  0  0  0  0  0  0  0  0  0
   46.2779   31.5791   50.3186 H   0  0  0  0  0  0  0  0  0  0  0  0
  2  1  1  0
  2  7  2  0
  3  2  1  0
  4  3  2  0
  4  5  1  0
  5  6  2  0
  6  7  1  0
  7 14  1  0
  8 13  2  0
  9  8  1  0
 10  9  2  0
 10 11  1  0
 11 12  2  0
 12 13  1  0
 12  3  1  0
  4 15  1  0
  5 16  1  0
  6 17  1  0
  8 18  1  0
  9 19  1  0
 10 20  1  0
 14 21  1  0
M  ISO  7  15  14  16  14  17  14  18  14  19  14  20  14  21  11
M  END
>  <minimizedAffinity>  (1) 
-4.91873455

>  <minimizedRMSD>  (1) 
0.861388266

$$$$
