
     RDKit          3D

 27 29  0  0  0  0  0  0  0  0999 V2000
   44.7700   33.7740   46.9200 F   0  0  0  0  0  0  0  0  0  0  0  0
   45.6330   32.8390   46.4350 C   0  0  0  0  0  0  0  0  0  0  0  0
   46.1800   33.0560   45.1900 C   0  0  0  0  0  0  0  0  0  0  0  0
   47.0540   32.1190   44.6870 C   0  0  0  0  0  0  0  0  0  0  0  0
   47.3670   30.9950   45.4190 C   0  0  0  0  0  0  0  0  0  0  0  0
   46.8310   30.7650   46.6570 C   0  0  0  0  0  0  0  0  0  0  0  0
   45.9490   31.7130   47.1630 C   0  0  0  0  0  0  0  0  0  0  0  0
   44.6000   36.2230   44.2390 C   0  0  0  0  0  0  0  0  0  0  0  0
   45.1940   36.5080   42.9910 C   0  0  0  0  0  0  0  0  0  0  0  0
   46.1330   35.5910   42.5090 C   0  0  0  0  0  0  0  0  0  0  0  0
   46.4220   34.4870   43.2550 N   0  0  0  0  0  0  0  0  0  0  0  0
   45.8300   34.2560   44.4390 C   0  0  0  0  0  0  0  0  0  0  0  0
   44.9290   35.1140   44.9260 N   0  0  0  0  0  0  0  0  0  0  0  0
   45.2980   31.5860   48.4930 C   0  0  0  0  0  0  0  0  0  0  0  0
   45.0160   30.2320   49.0520 C   0  0  0  0  0  0  0  0  0  0  0  0
   46.0390   31.1300   49.6860 C   0  0  0  0  0  0  0  0  0  0  0  0
   47.5050   32.2687   43.6949 H   0  0  0  0  0  0  0  0  0  0  0  0
   48.0684   30.2607   44.9961 H   0  0  0  0  0  0  0  0  0  0  0  0
   47.0887   29.8627   47.2309 H   0  0  0  0  0  0  0  0  0  0  0  0
   43.8567   36.9182   44.6564 H   0  0  0  0  0  0  0  0  0  0  0  0
   44.9299   37.4119   42.4224 H   0  0  0  0  0  0  0  0  0  0  0  0
   46.6311   35.7578   41.5425 H   0  0  0  0  0  0  0  0  0  0  0  0
   44.7028   32.4825   48.2649 H   0  0  0  0  0  0  0  0  0  0  0  0
   44.0627   30.0331   49.5635 H   0  0  0  0  0  0  0  0  0  0  0  0
   45.0132   29.2061   48.6551 H   0  0  0  0  0  0  0  0  0  0  0  0
   47.1087   30.8854   49.6085 H   0  0  0  0  0  0  0  0  0  0  0  0
   46.2030   31.5281   50.6982 H   0  0  0  0  0  0  0  0  0  0  0  0
  2  1  1  0
  2  7  2  0
  3  2  1  0
  4  3  2  0
  4  5  1  0
  5  6  2  0
  6  7  1  0
  7 14  1  0
  8 13  2  0
  9  8  1  0
 10  9  2  0
 10 11  1  0
 11 12  2  0
 12 13  1  0
 12  3  1  0
 14 15  1  0
 14 16  1  0
 15 16  1  0
  4 17  1  0
  5 18  1  0
  6 19  1  0
  8 20  1  0
  9 21  1  0
 10 22  1  0
 14 23  1  0
 15 24  1  0
 15 25  1  0
 16 26  1  0
 16 27  1  0
M  ISO  8  17  14  18  14  19  14  20  14  21  14  22  14  23  13  24  13
M  ISO  3  25  13  26  13  27  13
M  END
>  <minimizedAffinity>  (1) 
-4.68227386

>  <minimizedRMSD>  (1) 
1.35584152

$$$$
