
     RDKit          3D

 38 40  0  0  1  0  0  0  0  0999 V2000
   46.0290   33.1190   45.0710 F   0  0  0  0  0  0  0  0  0  0  0  0
   46.8950   32.1790   44.6480 C   0  0  0  0  0  0  0  0  0  0  0  0
   47.2060   31.1310   45.4870 C   0  0  0  0  0  0  0  0  0  0  0  0
   48.0820   30.1880   45.0500 C   0  0  0  0  0  0  0  0  0  0  0  0
   48.6380   30.2980   43.7840 C   0  0  0  0  0  0  0  0  0  0  0  0
   48.3360   31.3390   42.9390 C   0  0  0  0  0  0  0  0  0  0  0  0
   47.4300   32.3040   43.4020 C   0  0  0  0  0  0  0  0  0  0  0  0
   47.1620   33.3470   42.4840 N   0  0  0  0  0  0  0  0  0  0  0  0
   46.6910   33.3240   41.1310 C   0  0  0  0  0  0  0  0  0  0  0  0
   45.5600   34.3610   41.1370 C   0  0  0  0  0  0  0  0  0  0  0  0
   45.8770   35.2300   42.3340 C   0  0  0  0  0  0  0  0  0  0  0  0
   47.2860   34.7810   42.6420 C   0  0  2  0  0  0  0  0  0  0  0  0
   48.2480   35.4140   41.6920 C   0  0  0  0  0  0  0  0  0  0  0  0
   49.6790   35.3510   42.1830 C   0  0  0  0  0  0  0  0  0  0  0  0
   44.9760   30.1340   48.2330 C   0  0  0  0  0  0  0  0  0  0  0  0
   45.4250   30.9520   49.3050 C   0  0  0  0  0  0  0  0  0  0  0  0
   46.4970   31.8280   49.0350 C   0  0  0  0  0  0  0  0  0  0  0  0
   47.0380   31.8500   47.7860 N   0  0  0  0  0  0  0  0  0  0  0  0
   46.5890   31.0680   46.8080 C   0  0  0  0  0  0  0  0  0  0  0  0
   45.5600   30.2130   47.0310 N   0  0  0  0  0  0  0  0  0  0  0  0
   48.3491   29.3404   45.6982 H   0  0  0  0  0  0  0  0  0  0  0  0
   49.3445   29.5260   43.4449 H   0  0  0  0  0  0  0  0  0  0  0  0
   48.7874   31.4123   41.9386 H   0  0  0  0  0  0  0  0  0  0  0  0
   46.3111   32.3273   40.8623 H   0  0  0  0  0  0  0  0  0  0  0  0
   47.4781   33.5478   40.3959 H   0  0  0  0  0  0  0  0  0  0  0  0
   45.5656   34.9530   40.2099 H   0  0  0  0  0  0  0  0  0  0  0  0
   44.5617   33.9028   41.1952 H   0  0  0  0  0  0  0  0  0  0  0  0
   45.8391   36.2995   42.0796 H   0  0  0  0  0  0  0  0  0  0  0  0
   45.1719   35.1270   43.1720 H   0  0  0  0  0  0  0  0  0  0  0  0
   47.6759   35.0615   43.6316 H   0  0  0  0  0  0  0  0  0  0  0  0
   47.9678   36.4692   41.5580 H   0  0  0  0  0  0  0  0  0  0  0  0
   48.1962   34.8567   40.7451 H   0  0  0  0  0  0  0  0  0  0  0  0
   49.6896   35.3505   43.2829 H   0  0  0  0  0  0  0  0  0  0  0  0
   50.1540   34.4311   41.8114 H   0  0  0  0  0  0  0  0  0  0  0  0
   50.2330   36.2256   41.8114 H   0  0  0  0  0  0  0  0  0  0  0  0
   44.1441   29.4321   48.3918 H   0  0  0  0  0  0  0  0  0  0  0  0
   44.9579   30.9041   50.2997 H   0  0  0  0  0  0  0  0  0  0  0  0
   46.8911   32.4854   49.8240 H   0  0  0  0  0  0  0  0  0  0  0  0
  2  1  1  0
  2  3  2  0
  3 19  1  0
  4  3  1  0
  5  4  2  0
  6  7  2  0
  6  5  1  0
  7  2  1  0
  8 12  1  0
  8  7  1  0
  9 10  1  0
  9  8  1  0
 10 11  1  0
 11 12  1  0
 13 14  1  0
 13 12  1  0
 15 16  2  0
 17 16  1  0
 18 17  2  0
 19 20  2  0
 19 18  1  0
 20 15  1  0
  4 21  1  0
  5 22  1  0
  6 23  1  0
  9 24  1  0
  9 25  1  0
 10 26  1  0
 10 27  1  0
 11 28  1  0
 11 29  1  0
 12 30  1  1
 13 31  1  0
 13 32  1  0
 14 33  1  0
 14 34  1  0
 14 35  1  0
 15 36  1  0
 16 37  1  0
 17 38  1  0
M  ISO  8  21  14  22  14  23  14  24  13  25  13  26  13  27  13  28  13
M  ISO  8  29  13  30  13  31   8  32   8  33   8  34   8  35   8  36  14
M  ISO  2  37  14  38  14
M  END
>  <minimizedAffinity>  (1) 
-5.14512062

>  <minimizedRMSD>  (1) 
6.16129875

$$$$
