
     RDKit          3D

 33 35  0  0  1  0  0  0  0  0999 V2000
   47.0190   33.3990   44.7710 F   0  0  0  0  0  0  0  0  0  0  0  0
   47.5560   32.2030   44.3960 C   0  0  0  0  0  0  0  0  0  0  0  0
   48.2850   32.1590   43.2410 C   0  0  0  0  0  0  0  0  0  0  0  0
   48.8230   30.9560   42.8660 C   0  0  0  0  0  0  0  0  0  0  0  0
   48.6110   29.8330   43.6650 C   0  0  0  0  0  0  0  0  0  0  0  0
   47.8820   29.8840   44.8180 C   0  0  0  0  0  0  0  0  0  0  0  0
   47.3430   31.1060   45.1880 C   0  0  0  0  0  0  0  0  0  0  0  0
   46.5880   31.1220   46.3960 N   0  0  0  0  0  0  0  0  0  0  0  0
   45.4160   30.3800   46.7740 C   0  0  0  0  0  0  0  0  0  0  0  0
   45.8050   29.8140   48.1470 C   0  0  0  0  0  0  0  0  0  0  0  0
   46.8740   30.7550   48.6300 C   0  0  0  0  0  0  0  0  0  0  0  0
   46.7620   31.8890   47.6210 C   0  0  2  0  0  0  0  0  0  0  0  0
   45.1980   32.7380   47.9840 S   0  0  0  0  0  0  0  0  0  0  0  0
   49.5200   35.4300   42.1180 C   0  0  0  0  0  0  0  0  0  0  0  0
   48.8100   35.6250   40.9110 C   0  0  0  0  0  0  0  0  0  0  0  0
   47.9210   34.6190   40.5170 C   0  0  0  0  0  0  0  0  0  0  0  0
   47.8010   33.5260   41.3170 N   0  0  0  0  0  0  0  0  0  0  0  0
   48.4750   33.3600   42.4450 C   0  0  0  0  0  0  0  0  0  0  0  0
   49.3450   34.3150   42.8570 N   0  0  0  0  0  0  0  0  0  0  0  0
   49.4166   30.8768   41.9433 H   0  0  0  0  0  0  0  0  0  0  0  0
   49.0468   28.8717   43.3551 H   0  0  0  0  0  0  0  0  0  0  0  0
   47.7275   28.9851   45.4329 H   0  0  0  0  0  0  0  0  0  0  0  0
   44.5374   31.0375   46.8502 H   0  0  0  0  0  0  0  0  0  0  0  0
   45.1354   29.6052   46.0454 H   0  0  0  0  0  0  0  0  0  0  0  0
   44.9431   29.8153   48.8304 H   0  0  0  0  0  0  0  0  0  0  0  0
   46.1470   28.7697   48.0965 H   0  0  0  0  0  0  0  0  0  0  0  0
   46.6684   31.1054   49.6522 H   0  0  0  0  0  0  0  0  0  0  0  0
   47.8755   30.3035   48.6865 H   0  0  0  0  0  0  0  0  0  0  0  0
   47.5848   32.6188   47.6017 H   0  0  0  0  0  0  0  0  0  0  0  0
   45.0316   32.8283   49.3409 H   0  0  0  0  0  0  0  0  0  0  0  0
   50.2268   36.2002   42.4602 H   0  0  0  0  0  0  0  0  0  0  0  0
   48.9510   36.5323   40.3053 H   0  0  0  0  0  0  0  0  0  0  0  0
   47.3373   34.7094   39.5890 H   0  0  0  0  0  0  0  0  0  0  0  0
  2  1  1  0
  2  7  2  0
  3  2  1  0
  4  3  2  0
  4  5  1  0
  5  6  2  0
  6  7  1  0
  7  8  1  0
  8  9  1  0
  8 12  1  0
  9 10  1  0
 10 11  1  0
 12 13  1  0
 12 11  1  0
 14 19  2  0
 15 14  1  0
 16 15  2  0
 16 17  1  0
 17 18  2  0
 18 19  1  0
 18  3  1  0
  4 20  1  0
  5 21  1  0
  6 22  1  0
  9 23  1  0
  9 24  1  0
 10 25  1  0
 10 26  1  0
 11 27  1  0
 11 28  1  0
 12 29  1  6
 13 30  1  0
 14 31  1  0
 15 32  1  0
 16 33  1  0
M  ISO  8  20  14  21  14  22  14  23  13  24  13  25  13  26  13  27  13
M  ISO  6  28  13  29  13  30  11  31  14  32  14  33  14
M  END
>  <minimizedAffinity>  (1) 
-4.59156466

>  <minimizedRMSD>  (1) 
0.93975997

$$$$
