
     RDKit          3D

 48 51  0  0  1  0  0  0  0  0999 V2000
   46.8480   33.4520   44.5750 F   0  0  0  0  0  0  0  0  0  0  0  0
   47.4900   32.2630   44.3690 C   0  0  0  0  0  0  0  0  0  0  0  0
   48.2960   32.1550   43.2530 C   0  0  0  0  0  0  0  0  0  0  0  0
   48.9330   30.9670   43.0530 C   0  0  0  0  0  0  0  0  0  0  0  0
   48.7570   29.9310   43.9560 C   0  0  0  0  0  0  0  0  0  0  0  0
   47.9550   30.0430   45.0680 C   0  0  0  0  0  0  0  0  0  0  0  0
   47.3090   31.2600   45.2620 C   0  0  0  0  0  0  0  0  0  0  0  0
   46.4900   31.3370   46.4190 N   0  0  0  0  0  0  0  0  0  0  0  0
   45.4350   30.4650   46.8860 C   0  0  0  0  0  0  0  0  0  0  0  0
   45.8210   30.2250   48.3490 C   0  0  0  0  0  0  0  0  0  0  0  0
   46.6840   31.4170   48.6910 C   0  0  0  0  0  0  0  0  0  0  0  0
   46.4540   32.3120   47.4900 C   0  0  2  0  0  0  0  0  0  0  0  0
   45.2000   33.1100   47.5380 C   0  0  0  0  0  0  0  0  0  0  0  0
   49.1220   35.4700   41.9350 C   0  0  0  0  0  0  0  0  0  0  0  0
   48.7040   35.3970   40.5850 C   0  0  0  0  0  0  0  0  0  0  0  0
   48.1490   34.1860   40.2000 C   0  0  0  0  0  0  0  0  0  0  0  0
   48.0440   33.1880   41.0920 N   0  0  0  0  0  0  0  0  0  0  0  0
   48.4400   33.2760   42.3420 C   0  0  0  0  0  0  0  0  0  0  0  0
   48.9780   34.4160   42.7630 N   0  0  0  0  0  0  0  0  0  0  0  0
   47.6810   33.9490   38.8840 N   0  0  0  0  0  0  0  0  0  0  0  0
   46.5210   33.1770   38.5010 C   0  0  0  0  0  0  0  0  0  0  0  0
   47.0220   31.9530   37.7390 C   0  0  0  0  0  0  0  0  0  0  0  0
   48.3570   32.0870   37.4230 O   0  0  0  0  0  0  0  0  0  0  0  0
   48.6810   33.2990   36.8270 C   0  0  0  0  0  0  0  0  0  0  0  0
   48.3580   34.4890   37.7240 C   0  0  0  0  0  0  0  0  0  0  0  0
   49.5848   30.8310   42.1774 H   0  0  0  0  0  0  0  0  0  0  0  0
   49.2800   28.9801   43.7764 H   0  0  0  0  0  0  0  0  0  0  0  0
   47.8299   29.2076   45.7725 H   0  0  0  0  0  0  0  0  0  0  0  0
   44.4528   30.9544   46.8099 H   0  0  0  0  0  0  0  0  0  0  0  0
   45.3429   29.5382   46.3007 H   0  0  0  0  0  0  0  0  0  0  0  0
   44.9277   30.1905   48.9899 H   0  0  0  0  0  0  0  0  0  0  0  0
   46.3379   29.2661   48.5021 H   0  0  0  0  0  0  0  0  0  0  0  0
   46.3512   31.9001   49.6215 H   0  0  0  0  0  0  0  0  0  0  0  0
   47.7407   31.1689   48.8692 H   0  0  0  0  0  0  0  0  0  0  0  0
   47.1946   33.1197   47.3949 H   0  0  0  0  0  0  0  0  0  0  0  0
   44.9191   33.2888   48.5864 H   0  0  0  0  0  0  0  0  0  0  0  0
   45.3589   34.0735   47.0316 H   0  0  0  0  0  0  0  0  0  0  0  0
   44.3945   32.5580   47.0316 H   0  0  0  0  0  0  0  0  0  0  0  0
   49.5708   36.4000   42.3141 H   0  0  0  0  0  0  0  0  0  0  0  0
   48.8119   36.2422   39.8893 H   0  0  0  0  0  0  0  0  0  0  0  0
   45.9661   32.8616   39.3969 H   0  0  0  0  0  0  0  0  0  0  0  0
   45.8441   33.7760   37.8741 H   0  0  0  0  0  0  0  0  0  0  0  0
   46.8873   31.0584   38.3647 H   0  0  0  0  0  0  0  0  0  0  0  0
   46.4463   31.8576   36.8065 H   0  0  0  0  0  0  0  0  0  0  0  0
   49.7580   33.3066   36.6033 H   0  0  0  0  0  0  0  0  0  0  0  0
   48.0799   33.3950   35.9107 H   0  0  0  0  0  0  0  0  0  0  0  0
   49.2836   35.0006   38.0266 H   0  0  0  0  0  0  0  0  0  0  0  0
   47.7309   35.2262   37.2012 H   0  0  0  0  0  0  0  0  0  0  0  0
  2  1  1  0
  2  7  2  0
  3  2  1  0
  4  3  2  0
  4  5  1  0
  5  6  2  0
  6  7  1  0
  7  8  1  0
  8  9  1  0
  8 12  1  0
  9 10  1  0
 10 11  1  0
 12 13  1  0
 12 11  1  0
 14 19  2  0
 15 14  1  0
 16 15  2  0
 16 17  1  0
 17 18  2  0
 18 19  1  0
 18  3  1  0
 20 16  1  0
 21 20  1  0
 22 21  1  0
 23 22  1  0
 24 23  1  0
 24 25  1  0
 25 20  1  0
  4 26  1  0
  5 27  1  0
  6 28  1  0
  9 29  1  0
  9 30  1  0
 10 31  1  0
 10 32  1  0
 11 33  1  0
 11 34  1  0
 12 35  1  6
 13 36  1  0
 13 37  1  0
 13 38  1  0
 14 39  1  0
 15 40  1  0
 21 41  1  0
 21 42  1  0
 22 43  1  0
 22 44  1  0
 24 45  1  0
 24 46  1  0
 25 47  1  0
 25 48  1  0
M  ISO  8  26  14  27  14  28  14  29  13  30  13  31  13  32  13  33  13
M  ISO  8  34  13  35  13  36   8  37   8  38   8  39  14  40  14  41  13
M  ISO  7  42  13  43  13  44  13  45  13  46  13  47  13  48  13
M  END
>  <minimizedAffinity>  (1) 
-5.71239901

>  <minimizedRMSD>  (1) 
1.05407035

$$$$
