
     RDKit          3D

 45 48  0  0  1  0  0  0  0  0999 V2000
   46.5840   33.2340   44.8580 F   0  0  0  0  0  0  0  0  0  0  0  0
   47.2700   32.0670   44.7150 C   0  0  0  0  0  0  0  0  0  0  0  0
   48.1230   31.9440   43.6350 C   0  0  0  0  0  0  0  0  0  0  0  0
   48.8040   30.7650   43.5050 C   0  0  0  0  0  0  0  0  0  0  0  0
   48.6260   29.7550   44.4300 C   0  0  0  0  0  0  0  0  0  0  0  0
   47.7800   29.8760   45.5010 C   0  0  0  0  0  0  0  0  0  0  0  0
   47.0830   31.0830   45.6340 C   0  0  0  0  0  0  0  0  0  0  0  0
   46.2200   31.1590   46.7570 N   0  0  0  0  0  0  0  0  0  0  0  0
   45.0920   30.3630   47.1450 C   0  0  0  0  0  0  0  0  0  0  0  0
   45.3940   30.0200   48.6070 C   0  0  0  0  0  0  0  0  0  0  0  0
   46.3240   31.1240   49.0380 C   0  0  0  0  0  0  0  0  0  0  0  0
   46.2260   32.0950   47.8780 C   0  0  2  0  0  0  0  0  0  0  0  0
   45.0430   32.9880   47.9210 C   0  0  0  0  0  0  0  0  0  0  0  0
   49.0700   35.1570   42.1510 C   0  0  0  0  0  0  0  0  0  0  0  0
   48.5130   35.0710   40.8500 C   0  0  0  0  0  0  0  0  0  0  0  0
   47.8320   33.9000   40.5430 C   0  0  0  0  0  0  0  0  0  0  0  0
   47.7390   32.9340   41.4710 N   0  0  0  0  0  0  0  0  0  0  0  0
   48.2730   33.0420   42.6890 C   0  0  0  0  0  0  0  0  0  0  0  0
   48.9330   34.1400   43.0330 N   0  0  0  0  0  0  0  0  0  0  0  0
   47.2050   33.6610   39.2510 C   0  0  0  0  0  0  0  0  0  0  0  0
   45.9100   33.1900   39.2160 C   0  0  0  0  0  0  0  0  0  0  0  0
   45.2470   32.9370   38.0230 C   0  0  0  0  0  0  0  0  0  0  0  0
   45.8910   33.1610   36.8050 C   0  0  0  0  0  0  0  0  0  0  0  0
   47.1900   33.6330   36.8240 C   0  0  0  0  0  0  0  0  0  0  0  0
   47.8140   33.8720   38.0320 C   0  0  0  0  0  0  0  0  0  0  0  0
   49.4952   30.6209   42.6615 H   0  0  0  0  0  0  0  0  0  0  0  0
   49.1854   28.8166   44.3019 H   0  0  0  0  0  0  0  0  0  0  0  0
   47.6536   29.0587   46.2263 H   0  0  0  0  0  0  0  0  0  0  0  0
   44.1566   30.9354   47.0590 H   0  0  0  0  0  0  0  0  0  0  0  0
   44.9527   29.4738   46.5126 H   0  0  0  0  0  0  0  0  0  0  0  0
   44.4741   30.0220   49.2102 H   0  0  0  0  0  0  0  0  0  0  0  0
   45.8291   29.0176   48.7325 H   0  0  0  0  0  0  0  0  0  0  0  0
   45.9851   31.5877   49.9762 H   0  0  0  0  0  0  0  0  0  0  0  0
   47.3494   30.7830   49.2435 H   0  0  0  0  0  0  0  0  0  0  0  0
   47.0347   32.8401   47.8488 H   0  0  0  0  0  0  0  0  0  0  0  0
   44.7745   33.1907   48.9683 H   0  0  0  0  0  0  0  0  0  0  0  0
   45.2796   33.9347   47.4133 H   0  0  0  0  0  0  0  0  0  0  0  0
   44.1974   32.5010   47.4133 H   0  0  0  0  0  0  0  0  0  0  0  0
   49.6206   36.0621   42.4472 H   0  0  0  0  0  0  0  0  0  0  0  0
   48.6149   35.8890   40.1217 H   0  0  0  0  0  0  0  0  0  0  0  0
   45.3844   33.0086   40.1651 H   0  0  0  0  0  0  0  0  0  0  0  0
   44.2138   32.5599   38.0374 H   0  0  0  0  0  0  0  0  0  0  0  0
   45.3767   32.9664   35.8523 H   0  0  0  0  0  0  0  0  0  0  0  0
   47.7244   33.8174   35.8804 H   0  0  0  0  0  0  0  0  0  0  0  0
   48.8473   34.2491   38.0216 H   0  0  0  0  0  0  0  0  0  0  0  0
  2  1  1  0
  2  7  2  0
  3  2  1  0
  4  3  2  0
  4  5  1  0
  5  6  2  0
  6  7  1  0
  7  8  1  0
  8  9  1  0
  8 12  1  0
  9 10  1  0
 10 11  1  0
 12 13  1  0
 12 11  1  0
 14 19  2  0
 15 14  1  0
 16 15  2  0
 16 17  1  0
 17 18  2  0
 18 19  1  0
 18  3  1  0
 20 16  1  0
 21 20  2  0
 22 21  1  0
 23 24  1  0
 23 22  2  0
 24 25  2  0
 25 20  1  0
  4 26  1  0
  5 27  1  0
  6 28  1  0
  9 29  1  0
  9 30  1  0
 10 31  1  0
 10 32  1  0
 11 33  1  0
 11 34  1  0
 12 35  1  6
 13 36  1  0
 13 37  1  0
 13 38  1  0
 14 39  1  0
 15 40  1  0
 21 41  1  0
 22 42  1  0
 23 43  1  0
 24 44  1  0
 25 45  1  0
M  ISO  8  26  14  27  14  28  14  29  13  30  13  31  13  32  13  33  13
M  ISO  8  34  13  35  13  36   8  37   8  38   8  39  14  40  14  41  14
M  ISO  4  42  14  43  14  44  14  45  14
M  END
>  <minimizedAffinity>  (1) 
-5.63341856

>  <minimizedRMSD>  (1) 
0.937964797

$$$$
