
     RDKit          3D

 25 26  0  0  0  0  0  0  0  0999 V2000
   46.6250   32.3490   48.8690 O   0  0  0  0  0  0  0  0  0  0  0  0
   45.6350   32.3750   47.6940 P   0  0  1  0  0  0  0  0  0  0  0  0
   44.5110   33.6140   47.8760 O   0  0  0  0  0  0  0  0  0  0  0  0
   46.5480   32.5580   46.2890 O   0  0  0  0  0  0  0  0  0  0  0  0
   44.9060   35.1520   44.4890 C   0  0  0  0  0  0  0  0  0  0  0  0
   45.6540   35.2900   43.2980 C   0  0  0  0  0  0  0  0  0  0  0  0
   46.7530   34.4360   43.1560 C   0  0  0  0  0  0  0  0  0  0  0  0
   47.0310   33.5470   44.1460 N   0  0  0  0  0  0  0  0  0  0  0  0
   46.2830   33.4590   45.2630 C   0  0  0  0  0  0  0  0  0  0  0  0
   45.2270   34.2590   45.4300 N   0  0  0  0  0  0  0  0  0  0  0  0
   44.8120   30.9040   47.7460 O   0  0  0  0  0  0  0  0  0  0  0  0
   45.2710   29.6830   47.3050 C   0  0  0  0  0  0  0  0  0  0  0  0
   44.4170   28.9420   46.5130 C   0  0  0  0  0  0  0  0  0  0  0  0
   44.7830   27.6990   46.0150 C   0  0  0  0  0  0  0  0  0  0  0  0
   46.0430   27.2390   46.3520 C   0  0  0  0  0  0  0  0  0  0  0  0
   46.8770   27.9980   47.1450 C   0  0  0  0  0  0  0  0  0  0  0  0
   46.4810   29.2040   47.6080 N   0  0  0  0  0  0  0  0  0  0  0  0
   44.3584   33.7822   48.8396 H   0  0  0  0  0  0  0  0  0  0  0  0
   44.0315   35.8004   44.6466 H   0  0  0  0  0  0  0  0  0  0  0  0
   45.3873   36.0271   42.5263 H   0  0  0  0  0  0  0  0  0  0  0  0
   47.3833   34.4833   42.2558 H   0  0  0  0  0  0  0  0  0  0  0  0
   43.4230   29.3461   46.2708 H   0  0  0  0  0  0  0  0  0  0  0  0
   44.1036   27.1084   45.3828 H   0  0  0  0  0  0  0  0  0  0  0  0
   46.3825   26.2594   45.9843 H   0  0  0  0  0  0  0  0  0  0  0  0
   47.8761   27.6175   47.4037 H   0  0  0  0  0  0  0  0  0  0  0  0
  2 11  1  0
  2  3  1  0
  2  1  2  0
  4  2  1  0
  5 10  2  0
  6  5  1  0
  7  6  2  0
  7  8  1  0
  8  9  2  0
  9 10  1  0
  9  4  1  0
 12 17  1  0
 12 11  1  0
 13 12  2  0
 14 15  2  0
 14 13  1  0
 15 16  1  0
 16 17  2  0
  3 18  1  0
  5 19  1  0
  6 20  1  0
  7 21  1  0
 13 22  1  0
 14 23  1  0
 15 24  1  0
 16 25  1  0
M  ISO  8  18   3  19  14  20  14  21  14  22  14  23  14  24  14  25  14
M  END
>  <minimizedAffinity>  (1) 
-4.62965679

>  <minimizedRMSD>  (1) 
2.67942095

$$$$
