
     RDKit          3D

 24 25  0  0  0  0  0  0  0  0999 V2000
   46.9760   32.3570   48.3340 O   0  0  0  0  0  0  0  0  0  0  0  0
   45.9260   32.5430   47.2330 P   0  0  1  0  0  0  0  0  0  0  0  0
   44.6080   33.4090   47.7860 O   0  0  0  0  0  0  0  0  0  0  0  0
   46.7000   33.3140   45.9510 O   0  0  0  0  0  0  0  0  0  0  0  0
   44.4310   35.6860   44.5940 C   0  0  0  0  0  0  0  0  0  0  0  0
   44.7970   35.7950   43.2330 C   0  0  0  0  0  0  0  0  0  0  0  0
   45.8670   35.0050   42.8200 C   0  0  0  0  0  0  0  0  0  0  0  0
   46.4720   34.2040   43.7230 N   0  0  0  0  0  0  0  0  0  0  0  0
   46.0910   34.1290   45.0120 C   0  0  0  0  0  0  0  0  0  0  0  0
   45.0610   34.8780   45.4490 N   0  0  0  0  0  0  0  0  0  0  0  0
   45.4190   30.9780   46.8280 O   0  0  0  0  0  0  0  0  0  0  0  0
   46.4480   30.0330   46.6400 C   0  0  0  0  0  0  0  0  0  0  0  0
   47.2720   30.0530   45.5330 C   0  0  0  0  0  0  0  0  0  0  0  0
   48.2640   29.1010   45.4010 C   0  0  0  0  0  0  0  0  0  0  0  0
   48.4660   28.1350   46.3220 N   0  0  0  0  0  0  0  0  0  0  0  0
   47.6400   28.1340   47.4050 C   0  0  0  0  0  0  0  0  0  0  0  0
   46.6620   29.0580   47.5540 N   0  0  0  0  0  0  0  0  0  0  0  0
   44.6059   33.4104   48.7760 H   0  0  0  0  0  0  0  0  0  0  0  0
   43.5914   36.2928   44.9639 H   0  0  0  0  0  0  0  0  0  0  0  0
   44.2672   36.4652   42.5400 H   0  0  0  0  0  0  0  0  0  0  0  0
   46.2132   35.0331   41.7763 H   0  0  0  0  0  0  0  0  0  0  0  0
   47.1393   30.8236   44.7593 H   0  0  0  0  0  0  0  0  0  0  0  0
   48.9129   29.1311   44.5133 H   0  0  0  0  0  0  0  0  0  0  0  0
   47.7710   27.3627   48.1783 H   0  0  0  0  0  0  0  0  0  0  0  0
  2  3  1  0
  2  1  2  0
  4  2  1  0
  5 10  2  0
  6  5  1  0
  7  6  2  0
  7  8  1  0
  8  9  2  0
  9 10  1  0
  9  4  1  0
 11  2  1  0
 12 11  1  0
 12 17  1  0
 13 12  2  0
 14 13  1  0
 14 15  2  0
 15 16  1  0
 16 17  2  0
  3 18  1  0
  5 19  1  0
  6 20  1  0
  7 21  1  0
 13 22  1  0
 14 23  1  0
 16 24  1  0
M  ISO  7  18   3  19  14  20  14  21  14  22  14  23  14  24  14
M  END
>  <minimizedAffinity>  (1) 
-4.34006786

>  <minimizedRMSD>  (1) 
2.8057394

$$$$
