
     RDKit          3D

 31 32  0  0  1  0  0  0  0  0999 V2000
   46.7840   31.8860   48.6890 O   0  0  0  0  0  0  0  0  0  0  0  0
   45.8130   32.1350   47.5240 P   0  0  1  0  0  0  0  0  0  0  0  0
   44.4680   33.0040   48.0160 O   0  0  0  0  0  0  0  0  0  0  0  0
   46.6810   32.9700   46.3240 O   0  0  0  0  0  0  0  0  0  0  0  0
   44.5570   35.4450   44.9410 C   0  0  0  0  0  0  0  0  0  0  0  0
   44.9880   35.6000   43.6000 C   0  0  0  0  0  0  0  0  0  0  0  0
   46.0750   34.7750   43.2150 C   0  0  0  0  0  0  0  0  0  0  0  0
   46.5990   33.9280   44.1390 N   0  0  0  0  0  0  0  0  0  0  0  0
   46.1430   33.8350   45.3880 C   0  0  0  0  0  0  0  0  0  0  0  0
   45.1160   34.5970   45.7950 N   0  0  0  0  0  0  0  0  0  0  0  0
   45.3200   30.6260   46.9870 O   0  0  0  0  0  0  0  0  0  0  0  0
   45.8310   29.6700   47.8350 C   0  0  0  0  0  0  0  0  0  0  0  0
   45.5190   26.1380   48.1910 C   0  0  1  0  0  0  0  0  0  0  0  0
   44.8250   27.4340   47.8560 C   0  0  0  0  0  0  0  0  0  0  0  0
   45.8690   28.2900   47.2200 C   0  0  2  0  0  0  0  0  0  0  0  0
   47.1050   27.7170   47.4960 O   0  0  0  0  0  0  0  0  0  0  0  0
   46.9130   26.3800   47.7130 C   0  0  0  0  0  0  0  0  0  0  0  0
   45.5200   25.8660   49.5710 O   0  0  0  0  0  0  0  0  0  0  0  0
   44.4333   33.0264   49.0051 H   0  0  0  0  0  0  0  0  0  0  0  0
   43.7152   36.0597   45.2924 H   0  0  0  0  0  0  0  0  0  0  0  0
   44.5130   36.3099   42.9069 H   0  0  0  0  0  0  0  0  0  0  0  0
   46.4834   34.8196   42.1946 H   0  0  0  0  0  0  0  0  0  0  0  0
   46.8561   29.9586   48.1106 H   0  0  0  0  0  0  0  0  0  0  0  0
   45.1671   29.6202   48.7107 H   0  0  0  0  0  0  0  0  0  0  0  0
   45.0227   25.2706   47.7313 H   0  0  0  0  0  0  0  0  0  0  0  0
   43.9946   27.2563   47.1568 H   0  0  0  0  0  0  0  0  0  0  0  0
   44.3942   27.9100   48.7492 H   0  0  0  0  0  0  0  0  0  0  0  0
   45.6962   28.3664   46.1363 H   0  0  0  0  0  0  0  0  0  0  0  0
   47.0772   25.8308   46.7742 H   0  0  0  0  0  0  0  0  0  0  0  0
   47.6236   26.0312   48.4768 H   0  0  0  0  0  0  0  0  0  0  0  0
   45.5169   26.7179   50.0753 H   0  0  0  0  0  0  0  0  0  0  0  0
  2  3  1  0
  2  1  2  0
  4  2  1  0
  5 10  2  0
  6  5  1  0
  7  6  2  0
  7  8  1  0
  8  9  2  0
  9 10  1  0
  9  4  1  0
 11  2  1  0
 11 12  1  0
 13 18  1  0
 14 13  1  0
 15 16  1  0
 15 12  1  0
 15 14  1  0
 16 17  1  0
 17 13  1  0
  3 19  1  0
  5 20  1  0
  6 21  1  0
  7 22  1  0
 12 23  1  0
 12 24  1  0
 13 25  1  6
 14 26  1  0
 14 27  1  0
 15 28  1  6
 17 29  1  0
 17 30  1  0
 18 31  1  0
M  ISO  8  19   3  20  14  21  14  22  14  23   8  24   8  25  13  26  13
M  ISO  5  27  13  28  13  29  13  30  13  31   3
M  END
>  <minimizedAffinity>  (1) 
-4.76931763

>  <minimizedRMSD>  (1) 
1.69097686

$$$$
