
     RDKit          3D

 32 34  0  0  0  0  0  0  0  0999 V2000
   45.4450   30.6940   46.6240 O   0  0  0  0  0  0  0  0  0  0  0  0
   44.9540   29.9240   47.6500 C   0  0  0  0  0  0  0  0  0  0  0  0
   46.7760   28.3070   47.3050 C   0  0  0  0  0  0  0  0  0  0  0  0
   45.4630   28.5510   47.7080 C   0  0  0  0  0  0  0  0  0  0  0  0
   44.7350   27.4620   48.1370 C   0  0  0  0  0  0  0  0  0  0  0  0
   45.1930   26.1620   48.1990 C   0  0  0  0  0  0  0  0  0  0  0  0
   44.6380   24.9990   48.5820 N   0  0  0  0  0  0  0  0  0  0  0  0
   45.5790   24.0250   48.4270 C   0  0  0  0  0  0  0  0  0  0  0  0
   46.7070   24.6140   47.9470 N   0  0  0  0  0  0  0  0  0  0  0  0
   46.4980   25.9380   47.7960 C   0  0  0  0  0  0  0  0  0  0  0  0
   47.2520   27.0140   47.3610 C   0  0  0  0  0  0  0  0  0  0  0  0
   46.9300   31.8660   48.3930 O   0  0  0  0  0  0  0  0  0  0  0  0
   45.9420   32.1710   47.2680 P   0  0  2  0  0  0  0  0  0  0  0  0
   44.5730   32.9530   47.8710 O   0  0  0  0  0  0  0  0  0  0  0  0
   46.7340   33.1290   46.1240 O   0  0  0  0  0  0  0  0  0  0  0  0
   44.4800   35.5370   44.8350 C   0  0  0  0  0  0  0  0  0  0  0  0
   44.8800   35.7120   43.4780 C   0  0  0  0  0  0  0  0  0  0  0  0
   45.9800   34.9390   43.0510 C   0  0  0  0  0  0  0  0  0  0  0  0
   46.5640   34.0950   43.9630 N   0  0  0  0  0  0  0  0  0  0  0  0
   46.1350   33.9830   45.2200 C   0  0  0  0  0  0  0  0  0  0  0  0
   45.1050   34.6920   45.6560 N   0  0  0  0  0  0  0  0  0  0  0  0
   45.2089   30.4202   48.5980 H   0  0  0  0  0  0  0  0  0  0  0  0
   43.8720   29.8376   47.4715 H   0  0  0  0  0  0  0  0  0  0  0  0
   47.4172   29.1275   46.9505 H   0  0  0  0  0  0  0  0  0  0  0  0
   43.6989   27.6453   48.4578 H   0  0  0  0  0  0  0  0  0  0  0  0
   43.6772   24.8678   48.9292 H   0  0  0  0  0  0  0  0  0  0  0  0
   45.4494   22.9556   48.6499 H   0  0  0  0  0  0  0  0  0  0  0  0
   48.2882   26.8275   47.0423 H   0  0  0  0  0  0  0  0  0  0  0  0
   44.5949   32.9405   48.8607 H   0  0  0  0  0  0  0  0  0  0  0  0
   43.6279   36.1180   45.2175 H   0  0  0  0  0  0  0  0  0  0  0  0
   44.3613   36.4090   42.8034 H   0  0  0  0  0  0  0  0  0  0  0  0
   46.3578   35.0101   42.0204 H   0  0  0  0  0  0  0  0  0  0  0  0
  1 13  1  0
  1  2  1  0
  2  4  1  0
  3 11  2  0
  3  4  1  0
  4  5  2  0
  5  6  1  0
  6  7  1  0
  8  7  1  0
  9  8  2  0
 10  9  1  0
 10  6  2  0
 11 10  1  0
 13 14  1  0
 13 12  2  0
 15 13  1  0
 16 21  2  0
 17 16  1  0
 18 17  2  0
 18 19  1  0
 19 20  2  0
 20 21  1  0
 20 15  1  0
  2 22  1  0
  2 23  1  0
  3 24  1  0
  5 25  1  0
  7 26  1  0
  8 27  1  0
 11 28  1  0
 14 29  1  0
 16 30  1  0
 17 31  1  0
 18 32  1  0
M  ISO  8  22   8  23   8  24  14  25  14  26   9  27  14  28  14  29   3
M  ISO  3  30  14  31  14  32  14
M  END
>  <minimizedAffinity>  (1) 
-5.14049339

>  <minimizedRMSD>  (1) 
1.7209276

$$$$
