
     RDKit          3D

 23 23  0  0  0  0  0  0  0  0999 V2000
   47.3170   32.8150   47.5570 O   0  0  0  0  0  0  0  0  0  0  0  0
   45.8640   32.5670   47.1210 P   0  0  1  0  0  0  0  0  0  0  0  0
   44.8210   33.6610   47.8490 O   0  0  0  0  0  0  0  0  0  0  0  0
   45.8310   32.6960   45.4320 O   0  0  0  0  0  0  0  0  0  0  0  0
   44.6190   35.9450   44.6660 C   0  0  0  0  0  0  0  0  0  0  0  0
   45.1690   36.2420   43.3870 C   0  0  0  0  0  0  0  0  0  0  0  0
   45.9860   35.2370   42.8150 C   0  0  0  0  0  0  0  0  0  0  0  0
   46.1790   34.0810   43.5230 N   0  0  0  0  0  0  0  0  0  0  0  0
   45.6290   33.8760   44.7200 C   0  0  0  0  0  0  0  0  0  0  0  0
   44.8560   34.7890   45.2940 N   0  0  0  0  0  0  0  0  0  0  0  0
   45.4730   31.0150   47.6540 O   0  0  0  0  0  0  0  0  0  0  0  0
   46.5570   30.5090   48.3400 C   0  0  0  0  0  0  0  0  0  0  0  0
   48.0520   28.8180   47.4740 C   0  0  0  0  0  0  0  0  0  0  0  0
   48.7590   29.8730   47.3780 O   0  0  0  0  0  0  0  0  0  0  0  0
   46.7580   29.1070   48.0250 N   0  0  0  0  0  0  0  0  0  0  0  0
   44.8953   33.5830   48.8331 H   0  0  0  0  0  0  0  0  0  0  0  0
   43.9768   36.6926   45.1544 H   0  0  0  0  0  0  0  0  0  0  0  0
   44.9712   37.1948   42.8741 H   0  0  0  0  0  0  0  0  0  0  0  0
   46.4527   35.3809   41.8293 H   0  0  0  0  0  0  0  0  0  0  0  0
   47.4576   31.0744   48.0587 H   0  0  0  0  0  0  0  0  0  0  0  0
   46.3666   30.6039   49.4192 H   0  0  0  0  0  0  0  0  0  0  0  0
   48.3892   27.8150   47.1736 H   0  0  0  0  0  0  0  0  0  0  0  0
   46.0393   28.3861   48.1820 H   0  0  0  0  0  0  0  0  0  0  0  0
  2  1  2  0
  2 11  1  0
  2  3  1  0
  4  2  1  0
  5 10  2  0
  6  5  1  0
  7  6  2  0
  7  8  1  0
  8  9  2  0
  9 10  1  0
  9  4  1  0
 11 12  1  0
 13 15  1  0
 14 13  2  0
 15 12  1  0
  3 16  1  0
  5 17  1  0
  6 18  1  0
  7 19  1  0
 12 20  1  0
 12 21  1  0
 13 22  1  0
 15 23  1  0
M  ISO  7  16   3  17  14  18  14  19  14  20   8  21   8  22   6
M  END
>  <minimizedAffinity>  (1) 
-4.36861038

>  <minimizedRMSD>  (1) 
1.54323971

$$$$
