
     RDKit          3D

 21 21  0  0  0  0  0  0  0  0999 V2000
   47.2670   32.7330   47.6500 O   0  0  0  0  0  0  0  0  0  0  0  0
   45.8430   32.5670   47.1440 P   0  0  1  0  0  0  0  0  0  0  0  0
   44.8190   33.7170   47.8480 O   0  0  0  0  0  0  0  0  0  0  0  0
   45.8410   32.7160   45.4690 O   0  0  0  0  0  0  0  0  0  0  0  0
   44.6170   35.9350   44.6410 C   0  0  0  0  0  0  0  0  0  0  0  0
   45.1740   36.2220   43.3630 C   0  0  0  0  0  0  0  0  0  0  0  0
   46.0010   35.2140   42.8220 C   0  0  0  0  0  0  0  0  0  0  0  0
   46.2050   34.0590   43.5440 N   0  0  0  0  0  0  0  0  0  0  0  0
   45.6430   33.8700   44.7390 C   0  0  0  0  0  0  0  0  0  0  0  0
   44.8560   34.7990   45.2830 N   0  0  0  0  0  0  0  0  0  0  0  0
   45.3010   31.0510   47.6410 O   0  0  0  0  0  0  0  0  0  0  0  0
   45.8010   30.8100   48.9050 C   0  0  0  0  0  0  0  0  0  0  0  0
   45.3820   31.8010   49.8810 N   0  0  0  0  0  0  0  0  0  0  0  0
   44.8775   33.6513   48.8341 H   0  0  0  0  0  0  0  0  0  0  0  0
   43.9639   36.6832   45.1140 H   0  0  0  0  0  0  0  0  0  0  0  0
   44.9737   37.1649   42.8331 H   0  0  0  0  0  0  0  0  0  0  0  0
   46.4753   35.3489   41.8387 H   0  0  0  0  0  0  0  0  0  0  0  0
   45.4514   29.8214   49.2374 H   0  0  0  0  0  0  0  0  0  0  0  0
   46.8980   30.8575   48.8388 H   0  0  0  0  0  0  0  0  0  0  0  0
   45.5371   31.4343   50.8309 H   0  0  0  0  0  0  0  0  0  0  0  0
   45.9305   32.6632   49.7520 H   0  0  0  0  0  0  0  0  0  0  0  0
  2 11  1  0
  2  1  2  0
  2  3  1  0
  4  2  1  0
  5 10  2  0
  6  5  1  0
  7  6  2  0
  7  8  1  0
  8  9  2  0
  9 10  1  0
  9  4  1  0
 11 12  1  0
 12 13  1  0
  3 14  1  0
  5 15  1  0
  6 16  1  0
  7 17  1  0
 12 18  1  0
 12 19  1  0
 13 20  1  0
 13 21  1  0
M  ISO  8  14   3  15  14  16  14  17  14  18   8  19   8  20   5  21   5
M  END
>  <minimizedAffinity>  (1) 
-4.75887156

>  <minimizedRMSD>  (1) 
0.757054746

$$$$
