
     RDKit          3D

 34 35  0  0  0  0  0  0  0  0999 V2000
   46.7780   31.7920   48.6480 O   0  0  0  0  0  0  0  0  0  0  0  0
   45.8140   32.0990   47.4910 P   0  0  1  0  0  0  0  0  0  0  0  0
   44.4640   32.9510   48.0170 O   0  0  0  0  0  0  0  0  0  0  0  0
   46.6920   32.9820   46.3460 O   0  0  0  0  0  0  0  0  0  0  0  0
   44.5470   35.4470   44.9370 C   0  0  0  0  0  0  0  0  0  0  0  0
   45.0030   35.5830   43.6090 C   0  0  0  0  0  0  0  0  0  0  0  0
   46.0890   34.7830   43.2210 C   0  0  0  0  0  0  0  0  0  0  0  0
   46.6250   33.9320   44.1510 N   0  0  0  0  0  0  0  0  0  0  0  0
   46.1490   33.8450   45.4010 C   0  0  0  0  0  0  0  0  0  0  0  0
   45.1170   34.5950   45.7970 N   0  0  0  0  0  0  0  0  0  0  0  0
   45.2970   30.6220   46.8970 O   0  0  0  0  0  0  0  0  0  0  0  0
   45.4730   29.6610   47.8740 C   0  0  0  0  0  0  0  0  0  0  0  0
   45.2600   28.3830   47.2060 N   0  0  0  0  0  0  0  0  0  0  0  0
   44.8000   27.4800   48.2440 C   0  0  0  0  0  0  0  0  0  0  0  0
   44.2990   26.1630   47.7090 C   0  0  0  0  0  0  0  0  0  0  0  0
   43.1820   26.3890   46.7440 C   0  0  0  0  0  0  0  0  0  0  0  0
   43.6270   27.3550   45.6830 C   0  0  0  0  0  0  0  0  0  0  0  0
   44.1880   28.6280   46.2600 C   0  0  0  0  0  0  0  0  0  0  0  0
   44.4460   32.9624   49.0068 H   0  0  0  0  0  0  0  0  0  0  0  0
   43.6981   36.0592   45.2754 H   0  0  0  0  0  0  0  0  0  0  0  0
   44.5282   36.2854   42.9081 H   0  0  0  0  0  0  0  0  0  0  0  0
   46.4973   34.8377   42.2011 H   0  0  0  0  0  0  0  0  0  0  0  0
   46.4913   29.7142   48.2865 H   0  0  0  0  0  0  0  0  0  0  0  0
   44.7787   29.8024   48.7154 H   0  0  0  0  0  0  0  0  0  0  0  0
   45.6362   27.2825   48.9308 H   0  0  0  0  0  0  0  0  0  0  0  0
   43.9546   27.9689   48.7503 H   0  0  0  0  0  0  0  0  0  0  0  0
   45.1216   25.6424   47.1969 H   0  0  0  0  0  0  0  0  0  0  0  0
   43.9312   25.5522   48.5466 H   0  0  0  0  0  0  0  0  0  0  0  0
   42.9021   25.4335   46.2763 H   0  0  0  0  0  0  0  0  0  0  0  0
   42.3138   26.8034   47.2774 H   0  0  0  0  0  0  0  0  0  0  0  0
   42.7633   27.6055   45.0495 H   0  0  0  0  0  0  0  0  0  0  0  0
   44.4266   26.8700   45.1038 H   0  0  0  0  0  0  0  0  0  0  0  0
   44.5773   29.2466   45.4379 H   0  0  0  0  0  0  0  0  0  0  0  0
   43.3758   29.1374   46.7993 H   0  0  0  0  0  0  0  0  0  0  0  0
  2  3  1  0
  2  1  2  0
  4  2  1  0
  5 10  2  0
  6  5  1  0
  7  6  2  0
  7  8  1  0
  8  9  2  0
  9 10  1  0
  9  4  1  0
 11  2  1  0
 11 12  1  0
 13 12  1  0
 13 14  1  0
 15 14  1  0
 16 15  1  0
 17 18  1  0
 17 16  1  0
 18 13  1  0
  3 19  1  0
  5 20  1  0
  6 21  1  0
  7 22  1  0
 12 23  1  0
 12 24  1  0
 14 25  1  0
 14 26  1  0
 15 27  1  0
 15 28  1  0
 16 29  1  0
 16 30  1  0
 17 31  1  0
 17 32  1  0
 18 33  1  0
 18 34  1  0
M  ISO  8  19   3  20  14  21  14  22  14  23   8  24   8  25  13  26  13
M  ISO  8  27  13  28  13  29  13  30  13  31  13  32  13  33  13  34  13
M  END
>  <minimizedAffinity>  (1) 
-4.66026497

>  <minimizedRMSD>  (1) 
1.1468904

$$$$
