
     RDKit          3D

 36 39  0  0  0  0  0  0  0  0999 V2000
   46.4690   34.7200   42.1640 C   0  0  0  0  0  0  0  0  0  0  0  0
   47.7570   35.1590   42.0050 C   0  0  0  0  0  0  0  0  0  0  0  0
   48.4980   34.9690   40.8410 C   0  0  0  0  0  0  0  0  0  0  0  0
   47.9240   34.3060   39.7810 C   0  0  0  0  0  0  0  0  0  0  0  0
   46.6360   33.8640   39.9360 C   0  0  0  0  0  0  0  0  0  0  0  0
   45.9170   34.0630   41.0990 C   0  0  0  0  0  0  0  0  0  0  0  0
   43.7130   34.3110   40.3530 C   0  0  0  0  0  0  0  0  0  0  0  0
   44.5470   33.5670   41.1960 C   0  0  0  0  0  0  0  0  0  0  0  0
   44.0010   32.5460   41.9470 C   0  0  0  0  0  0  0  0  0  0  0  0
   42.6710   32.2840   41.8540 C   0  0  0  0  0  0  0  0  0  0  0  0
   41.9500   31.3530   42.4860 N   0  0  0  0  0  0  0  0  0  0  0  0
   40.6770   31.4660   42.0830 C   0  0  0  0  0  0  0  0  0  0  0  0
   40.5320   32.4930   41.1610 C   0  0  0  0  0  0  0  0  0  0  0  0
   41.8150   33.0030   41.0270 C   0  0  0  0  0  0  0  0  0  0  0  0
   42.3500   34.0250   40.2730 C   0  0  0  0  0  0  0  0  0  0  0  0
   44.4220   36.2520   44.9090 C   0  0  0  0  0  0  0  0  0  0  0  0
   45.0220   36.1120   43.6480 C   0  0  0  0  0  0  0  0  0  0  0  0
   45.8070   34.9750   43.4090 C   0  0  0  0  0  0  0  0  0  0  0  0
   45.9460   34.0700   44.4050 N   0  0  0  0  0  0  0  0  0  0  0  0
   45.3460   34.2510   45.6070 C   0  0  0  0  0  0  0  0  0  0  0  0
   44.5870   35.3380   45.8560 N   0  0  0  0  0  0  0  0  0  0  0  0
   45.5080   33.2840   46.6460 N   0  0  0  0  0  0  0  0  0  0  0  0
   48.2320   35.6907   42.8426 H   0  0  0  0  0  0  0  0  0  0  0  0
   49.5295   35.3445   40.7702 H   0  0  0  0  0  0  0  0  0  0  0  0
   48.4773   34.1372   38.8454 H   0  0  0  0  0  0  0  0  0  0  0  0
   46.1562   33.3303   39.1024 H   0  0  0  0  0  0  0  0  0  0  0  0
   44.1357   35.1274   39.7490 H   0  0  0  0  0  0  0  0  0  0  0  0
   44.6379   31.9487   42.6160 H   0  0  0  0  0  0  0  0  0  0  0  0
   42.3103   30.6675   43.1651 H   0  0  0  0  0  0  0  0  0  0  0  0
   39.8540   30.8277   42.4370 H   0  0  0  0  0  0  0  0  0  0  0  0
   39.6138   32.8252   40.6545 H   0  0  0  0  0  0  0  0  0  0  0  0
   41.7023   34.6152   39.6081 H   0  0  0  0  0  0  0  0  0  0  0  0
   43.8027   37.1372   45.1161 H   0  0  0  0  0  0  0  0  0  0  0  0
   44.8802   36.8742   42.8677 H   0  0  0  0  0  0  0  0  0  0  0  0
   45.0501   33.4260   47.5576 H   0  0  0  0  0  0  0  0  0  0  0  0
   46.0827   32.4448   46.4835 H   0  0  0  0  0  0  0  0  0  0  0  0
  1 18  1  0
  2  1  2  0
  3  2  1  0
  4  5  1  0
  4  3  2  0
  5  6  2  0
  6  8  1  0
  6  1  1  0
  7  8  2  0
  8  9  1  0
 10  9  2  0
 10 11  1  0
 12 11  1  0
 13 12  2  0
 14 13  1  0
 14 10  1  0
 15  7  1  0
 15 14  2  0
 16 21  2  0
 17 16  1  0
 18 17  2  0
 18 19  1  0
 19 20  2  0
 20 21  1  0
 20 22  1  0
  2 23  1  0
  3 24  1  0
  4 25  1  0
  5 26  1  0
  7 27  1  0
  9 28  1  0
 11 29  1  0
 12 30  1  0
 13 31  1  0
 15 32  1  0
 16 33  1  0
 17 34  1  0
 22 35  1  0
 22 36  1  0
M  ISO  8  23  14  24  14  25  14  26  14  27  14  28  14  29   9  30  14
M  ISO  4  31  14  32  14  33  14  34  14
M  END
>  <minimizedAffinity>  (1) 
-7.13954449

>  <minimizedRMSD>  (1) 
1.0501219

$$$$
