
     RDKit          3D

 30 32  0  0  0  0  0  0  0  0999 V2000
   46.5590   34.7600   42.1190 C   0  0  0  0  0  0  0  0  0  0  0  0
   47.8540   35.1820   42.0100 C   0  0  0  0  0  0  0  0  0  0  0  0
   48.6350   35.0100   40.8740 C   0  0  0  0  0  0  0  0  0  0  0  0
   48.0820   34.3750   39.7710 C   0  0  0  0  0  0  0  0  0  0  0  0
   46.7700   33.9460   39.8760 C   0  0  0  0  0  0  0  0  0  0  0  0
   46.0330   34.1350   41.0210 C   0  0  0  0  0  0  0  0  0  0  0  0
   44.4120   36.2340   44.8290 C   0  0  0  0  0  0  0  0  0  0  0  0
   45.0510   36.1120   43.5740 C   0  0  0  0  0  0  0  0  0  0  0  0
   45.8560   34.9980   43.3490 C   0  0  0  0  0  0  0  0  0  0  0  0
   45.9870   34.0870   44.3450 N   0  0  0  0  0  0  0  0  0  0  0  0
   45.3610   34.2370   45.5320 C   0  0  0  0  0  0  0  0  0  0  0  0
   44.5770   35.3050   45.7700 N   0  0  0  0  0  0  0  0  0  0  0  0
   45.5220   33.2620   46.5600 N   0  0  0  0  0  0  0  0  0  0  0  0
   44.6560   33.6600   41.0720 C   0  0  0  0  0  0  0  0  0  0  0  0
   44.1070   32.5050   41.5910 C   0  0  0  0  0  0  0  0  0  0  0  0
   42.7520   32.3090   41.5010 C   0  0  0  0  0  0  0  0  0  0  0  0
   41.9130   33.1930   40.9240 N   0  0  0  0  0  0  0  0  0  0  0  0
   42.4820   34.3160   40.4240 C   0  0  0  0  0  0  0  0  0  0  0  0
   43.8240   34.5720   40.4820 N   0  0  0  0  0  0  0  0  0  0  0  0
   48.3060   35.6892   42.8751 H   0  0  0  0  0  0  0  0  0  0  0  0
   49.6738   35.3709   40.8493 H   0  0  0  0  0  0  0  0  0  0  0  0
   48.6629   34.2188   38.8501 H   0  0  0  0  0  0  0  0  0  0  0  0
   46.3036   33.4392   39.0183 H   0  0  0  0  0  0  0  0  0  0  0  0
   43.7716   37.1053   45.0310 H   0  0  0  0  0  0  0  0  0  0  0  0
   44.9159   36.8771   42.7953 H   0  0  0  0  0  0  0  0  0  0  0  0
   45.0419   33.3820   47.4633 H   0  0  0  0  0  0  0  0  0  0  0  0
   46.1184   32.4378   46.3992 H   0  0  0  0  0  0  0  0  0  0  0  0
   44.7479   31.7508   42.0710 H   0  0  0  0  0  0  0  0  0  0  0  0
   42.3289   31.3844   41.9206 H   0  0  0  0  0  0  0  0  0  0  0  0
   41.8298   35.0617   39.9459 H   0  0  0  0  0  0  0  0  0  0  0  0
  1  9  1  0
  2  1  2  0
  3  2  1  0
  4  5  1  0
  4  3  2  0
  5  6  2  0
  6 14  1  0
  6  1  1  0
  7 12  2  0
  8  7  1  0
  9  8  2  0
  9 10  1  0
 10 11  2  0
 11 12  1  0
 11 13  1  0
 14 15  2  0
 16 15  1  0
 17 16  2  0
 18 19  2  0
 18 17  1  0
 19 14  1  0
  2 20  1  0
  3 21  1  0
  4 22  1  0
  5 23  1  0
  7 24  1  0
  8 25  1  0
 13 26  1  0
 13 27  1  0
 15 28  1  0
 16 29  1  0
 18 30  1  0
M  ISO  8  20  14  21  14  22  14  23  14  24  14  25  14  28  14  29  14
M  ISO  1  30  14
M  END
>  <minimizedAffinity>  (1) 
-6.17800474

>  <minimizedRMSD>  (1) 
0.375851601

$$$$
