
     RDKit          3D

 35 37  0  0  0  0  0  0  0  0999 V2000
   46.5710   34.7700   42.1070 C   0  0  0  0  0  0  0  0  0  0  0  0
   47.8600   35.2110   41.9930 C   0  0  0  0  0  0  0  0  0  0  0  0
   48.6500   35.0630   40.8620 C   0  0  0  0  0  0  0  0  0  0  0  0
   48.0930   34.4190   39.7600 C   0  0  0  0  0  0  0  0  0  0  0  0
   46.7920   33.9740   39.8740 C   0  0  0  0  0  0  0  0  0  0  0  0
   46.0300   34.1370   41.0170 C   0  0  0  0  0  0  0  0  0  0  0  0
   44.4170   36.2120   44.8250 C   0  0  0  0  0  0  0  0  0  0  0  0
   45.0530   36.1150   43.5630 C   0  0  0  0  0  0  0  0  0  0  0  0
   45.8640   34.9930   43.3480 C   0  0  0  0  0  0  0  0  0  0  0  0
   46.0150   34.0550   44.3270 N   0  0  0  0  0  0  0  0  0  0  0  0
   45.3690   34.2200   45.5180 C   0  0  0  0  0  0  0  0  0  0  0  0
   44.5790   35.2860   45.7630 N   0  0  0  0  0  0  0  0  0  0  0  0
   45.5250   33.2590   46.5490 N   0  0  0  0  0  0  0  0  0  0  0  0
   44.6320   33.6380   41.0850 C   0  0  0  0  0  0  0  0  0  0  0  0
   43.6670   34.6620   40.4790 C   0  0  0  0  0  0  0  0  0  0  0  0
   42.5410   33.7320   40.0470 C   0  0  0  0  0  0  0  0  0  0  0  0
   43.3640   32.6900   39.2830 C   0  0  0  0  0  0  0  0  0  0  0  0
   44.4000   32.3630   40.3450 C   0  0  0  0  0  0  0  0  0  0  0  0
   48.3032   35.7204   42.8614 H   0  0  0  0  0  0  0  0  0  0  0  0
   49.6824   35.4419   40.8366 H   0  0  0  0  0  0  0  0  0  0  0  0
   48.6682   34.2708   38.8342 H   0  0  0  0  0  0  0  0  0  0  0  0
   46.3375   33.4636   39.0121 H   0  0  0  0  0  0  0  0  0  0  0  0
   43.7714   37.0778   45.0337 H   0  0  0  0  0  0  0  0  0  0  0  0
   44.9166   36.8841   42.7885 H   0  0  0  0  0  0  0  0  0  0  0  0
   45.0373   33.3839   47.4476 H   0  0  0  0  0  0  0  0  0  0  0  0
   46.1260   32.4360   46.3993 H   0  0  0  0  0  0  0  0  0  0  0  0
   44.4542   33.4666   42.1569 H   0  0  0  0  0  0  0  0  0  0  0  0
   43.3280   35.3961   41.2248 H   0  0  0  0  0  0  0  0  0  0  0  0
   44.0912   35.2834   39.6766 H   0  0  0  0  0  0  0  0  0  0  0  0
   42.0172   33.2919   40.9084 H   0  0  0  0  0  0  0  0  0  0  0  0
   41.7318   34.2068   39.4727 H   0  0  0  0  0  0  0  0  0  0  0  0
   42.7623   31.8100   39.0117 H   0  0  0  0  0  0  0  0  0  0  0  0
   43.7716   33.0294   38.3193 H   0  0  0  0  0  0  0  0  0  0  0  0
   44.0201   31.5873   41.0262 H   0  0  0  0  0  0  0  0  0  0  0  0
   45.3289   31.9747   39.9017 H   0  0  0  0  0  0  0  0  0  0  0  0
  1  9  1  0
  2  1  2  0
  3  2  1  0
  4  5  1  0
  4  3  2  0
  5  6  2  0
  6 14  1  0
  6  1  1  0
  7 12  2  0
  8  7  1  0
  9  8  2  0
  9 10  1  0
 10 11  2  0
 11 12  1  0
 11 13  1  0
 15 14  1  0
 16 15  1  0
 17 16  1  0
 17 18  1  0
 18 14  1  0
  2 19  1  0
  3 20  1  0
  4 21  1  0
  5 22  1  0
  7 23  1  0
  8 24  1  0
 13 25  1  0
 13 26  1  0
 14 27  1  0
 15 28  1  0
 15 29  1  0
 16 30  1  0
 16 31  1  0
 17 32  1  0
 17 33  1  0
 18 34  1  0
 18 35  1  0
M  ISO  8  19  14  20  14  21  14  22  14  23  14  24  14  27  13  28  13
M  ISO  7  29  13  30  13  31  13  32  13  33  13  34  13  35  13
M  END
>  <minimizedAffinity>  (1) 
-6.00809431

>  <minimizedRMSD>  (1) 
0.257509053

$$$$
