
     RDKit          3D

 32 34  0  0  0  0  0  0  0  0999 V2000
   46.5730   34.7800   42.1050 C   0  0  0  0  0  0  0  0  0  0  0  0
   47.9160   35.1090   42.0710 C   0  0  0  0  0  0  0  0  0  0  0  0
   48.7080   34.9150   40.9380 C   0  0  0  0  0  0  0  0  0  0  0  0
   48.1300   34.3720   39.8070 C   0  0  0  0  0  0  0  0  0  0  0  0
   46.8000   34.0550   39.8640 C   0  0  0  0  0  0  0  0  0  0  0  0
   46.0070   34.2430   40.9800 C   0  0  0  0  0  0  0  0  0  0  0  0
   44.4160   36.2610   44.8160 C   0  0  0  0  0  0  0  0  0  0  0  0
   45.0620   36.1260   43.5760 C   0  0  0  0  0  0  0  0  0  0  0  0
   45.8610   35.0250   43.3350 C   0  0  0  0  0  0  0  0  0  0  0  0
   45.9880   34.1000   44.3340 N   0  0  0  0  0  0  0  0  0  0  0  0
   45.3520   34.2550   45.5240 C   0  0  0  0  0  0  0  0  0  0  0  0
   44.5680   35.3410   45.7530 N   0  0  0  0  0  0  0  0  0  0  0  0
   45.4990   33.2750   46.5530 N   0  0  0  0  0  0  0  0  0  0  0  0
   45.4810   31.5310   41.9430 Cl  0  0  0  0  0  0  0  0  0  0  0  0
   44.2100   32.6290   41.4060 C   0  0  0  0  0  0  0  0  0  0  0  0
   44.5930   33.8810   40.9780 C   0  0  0  0  0  0  0  0  0  0  0  0
   43.5290   34.6910   40.5720 C   0  0  0  0  0  0  0  0  0  0  0  0
   42.2290   34.2430   40.6110 C   0  0  0  0  0  0  0  0  0  0  0  0
   41.9250   32.9590   41.0580 C   0  0  0  0  0  0  0  0  0  0  0  0
   42.9530   32.1090   41.4760 C   0  0  0  0  0  0  0  0  0  0  0  0
   48.3778   35.5401   42.9715 H   0  0  0  0  0  0  0  0  0  0  0  0
   49.7732   35.1896   40.9457 H   0  0  0  0  0  0  0  0  0  0  0  0
   48.7178   34.2005   38.8932 H   0  0  0  0  0  0  0  0  0  0  0  0
   46.3333   33.6239   38.9660 H   0  0  0  0  0  0  0  0  0  0  0  0
   43.7798   37.1375   45.0085 H   0  0  0  0  0  0  0  0  0  0  0  0
   44.9322   36.8943   42.7995 H   0  0  0  0  0  0  0  0  0  0  0  0
   45.0145   33.3973   47.4537 H   0  0  0  0  0  0  0  0  0  0  0  0
   46.0895   32.4461   46.3942 H   0  0  0  0  0  0  0  0  0  0  0  0
   43.7358   35.7100   40.2131 H   0  0  0  0  0  0  0  0  0  0  0  0
   41.4168   34.9090   40.2841 H   0  0  0  0  0  0  0  0  0  0  0  0
   40.8803   32.6155   41.0819 H   0  0  0  0  0  0  0  0  0  0  0  0
   42.7597   31.0882   41.8374 H   0  0  0  0  0  0  0  0  0  0  0  0
  1  9  1  0
  2  1  2  0
  3  2  1  0
  4  5  1  0
  4  3  2  0
  5  6  2  0
  6  1  1  0
  7 12  2  0
  8  7  1  0
  9  8  2  0
  9 10  1  0
 10 11  2  0
 11 12  1  0
 11 13  1  0
 15 20  2  0
 15 14  1  0
 16  6  1  0
 16 15  1  0
 17 18  1  0
 17 16  2  0
 18 19  2  0
 19 20  1  0
  2 21  1  0
  3 22  1  0
  4 23  1  0
  5 24  1  0
  7 25  1  0
  8 26  1  0
 13 27  1  0
 13 28  1  0
 17 29  1  0
 18 30  1  0
 19 31  1  0
 20 32  1  0
M  ISO  8  21  14  22  14  23  14  24  14  25  14  26  14  29  14  30  14
M  ISO  2  31  14  32  14
M  END
>  <minimizedAffinity>  (1) 
-6.30318785

>  <minimizedRMSD>  (1) 
1.12398446

$$$$
