
     RDKit          3D

 26 27  0  0  0  0  0  0  0  0999 V2000
   46.5620   34.7590   42.2320 C   0  0  0  0  0  0  0  0  0  0  0  0
   47.8460   35.2860   42.1410 C   0  0  0  0  0  0  0  0  0  0  0  0
   48.6080   35.1600   40.9710 C   0  0  0  0  0  0  0  0  0  0  0  0
   48.0740   34.4970   39.8750 C   0  0  0  0  0  0  0  0  0  0  0  0
   46.8200   33.9880   39.9800 C   0  0  0  0  0  0  0  0  0  0  0  0
   46.0550   34.1050   41.1350 C   0  0  0  0  0  0  0  0  0  0  0  0
   44.3880   36.0920   44.9820 C   0  0  0  0  0  0  0  0  0  0  0  0
   45.0210   36.0320   43.7130 C   0  0  0  0  0  0  0  0  0  0  0  0
   45.8640   34.9430   43.4690 C   0  0  0  0  0  0  0  0  0  0  0  0
   46.0260   34.0240   44.4410 N   0  0  0  0  0  0  0  0  0  0  0  0
   45.3960   34.1290   45.6410 C   0  0  0  0  0  0  0  0  0  0  0  0
   44.5850   35.1550   45.9040 N   0  0  0  0  0  0  0  0  0  0  0  0
   45.6090   33.1400   46.6450 N   0  0  0  0  0  0  0  0  0  0  0  0
   44.8080   37.0070   42.7790 O   0  0  0  0  0  0  0  0  0  0  0  0
   44.6980   33.5360   41.2250 C   0  0  0  0  0  0  0  0  0  0  0  0
   44.5100   32.6770   40.1440 F   0  0  0  0  0  0  0  0  0  0  0  0
   43.7770   34.5640   41.1790 F   0  0  0  0  0  0  0  0  0  0  0  0
   44.4420   32.8410   42.3820 F   0  0  0  0  0  0  0  0  0  0  0  0
   48.2732   35.8135   43.0066 H   0  0  0  0  0  0  0  0  0  0  0  0
   49.6220   35.5836   40.9221 H   0  0  0  0  0  0  0  0  0  0  0  0
   48.6518   34.3868   38.9455 H   0  0  0  0  0  0  0  0  0  0  0  0
   46.3911   33.4609   39.1150 H   0  0  0  0  0  0  0  0  0  0  0  0
   43.7180   36.9346   45.2080 H   0  0  0  0  0  0  0  0  0  0  0  0
   45.1322   33.2185   47.5546 H   0  0  0  0  0  0  0  0  0  0  0  0
   46.2397   32.3468   46.4609 H   0  0  0  0  0  0  0  0  0  0  0  0
   45.2552   36.9541   41.8974 H   0  0  0  0  0  0  0  0  0  0  0  0
  1  9  1  0
  2  1  2  0
  3  2  1  0
  4  5  1  0
  4  3  2  0
  5  6  2  0
  6 15  1  0
  6  1  1  0
  7 12  2  0
  8  7  1  0
  9  8  2  0
  9 10  1  0
 10 11  2  0
 11 12  1  0
 11 13  1  0
 14  8  1  0
 15 18  1  0
 16 15  1  0
 17 15  1  0
  2 19  1  0
  3 20  1  0
  4 21  1  0
  5 22  1  0
  7 23  1  0
 13 24  1  0
 13 25  1  0
 14 26  1  0
M  ISO  6  19  14  20  14  21  14  22  14  23  14  26   3
M  END
>  <minimizedAffinity>  (1) 
-6.01230621

>  <minimizedRMSD>  (1) 
0.225498289

$$$$
