
     RDKit          3D

 27 28  0  0  0  0  0  0  0  0999 V2000
   46.6200   34.7450   42.2510 C   0  0  0  0  0  0  0  0  0  0  0  0
   47.8970   35.2970   42.1680 C   0  0  0  0  0  0  0  0  0  0  0  0
   48.6600   35.2280   40.9980 C   0  0  0  0  0  0  0  0  0  0  0  0
   48.1500   34.6010   39.8830 C   0  0  0  0  0  0  0  0  0  0  0  0
   46.9020   34.0630   39.9660 C   0  0  0  0  0  0  0  0  0  0  0  0
   46.1280   34.1240   41.1260 C   0  0  0  0  0  0  0  0  0  0  0  0
   44.4520   35.9140   45.0720 C   0  0  0  0  0  0  0  0  0  0  0  0
   45.0900   35.9250   43.7960 C   0  0  0  0  0  0  0  0  0  0  0  0
   45.9190   34.8640   43.4940 C   0  0  0  0  0  0  0  0  0  0  0  0
   46.0830   33.8810   44.4070 N   0  0  0  0  0  0  0  0  0  0  0  0
   45.4550   33.9100   45.6140 C   0  0  0  0  0  0  0  0  0  0  0  0
   44.6430   34.9250   45.9410 N   0  0  0  0  0  0  0  0  0  0  0  0
   45.6580   32.8620   46.5610 N   0  0  0  0  0  0  0  0  0  0  0  0
   44.8760   37.0020   42.9240 N   0  0  0  0  0  0  0  0  0  0  0  0
   44.7810   33.5290   41.1850 C   0  0  0  0  0  0  0  0  0  0  0  0
   44.6010   32.7430   40.0520 F   0  0  0  0  0  0  0  0  0  0  0  0
   43.8410   34.5410   41.2220 F   0  0  0  0  0  0  0  0  0  0  0  0
   44.5570   32.7540   42.2970 F   0  0  0  0  0  0  0  0  0  0  0  0
   48.3177   35.8025   43.0498 H   0  0  0  0  0  0  0  0  0  0  0  0
   49.6653   35.6736   40.9684 H   0  0  0  0  0  0  0  0  0  0  0  0
   48.7336   34.5367   38.9528 H   0  0  0  0  0  0  0  0  0  0  0  0
   46.4860   33.5588   39.0813 H   0  0  0  0  0  0  0  0  0  0  0  0
   43.7847   36.7450   45.3444 H   0  0  0  0  0  0  0  0  0  0  0  0
   45.1789   32.8915   47.4723 H   0  0  0  0  0  0  0  0  0  0  0  0
   46.2836   32.0761   46.3332 H   0  0  0  0  0  0  0  0  0  0  0  0
   45.3335   37.0163   42.0013 H   0  0  0  0  0  0  0  0  0  0  0  0
   44.2613   37.7788   43.2062 H   0  0  0  0  0  0  0  0  0  0  0  0
  1  9  1  0
  2  1  2  0
  3  2  1  0
  4  5  1  0
  4  3  2  0
  5  6  2  0
  6 15  1  0
  6  1  1  0
  7 12  2  0
  8  7  1  0
  9  8  2  0
  9 10  1  0
 10 11  2  0
 11 12  1  0
 11 13  1  0
 14  8  1  0
 15 17  1  0
 15 18  1  0
 16 15  1  0
  2 19  1  0
  3 20  1  0
  4 21  1  0
  5 22  1  0
  7 23  1  0
 13 24  1  0
 13 25  1  0
 14 26  1  0
 14 27  1  0
M  ISO  5  19  14  20  14  21  14  22  14  23  14
M  END
>  <minimizedAffinity>  (1) 
-5.94538212

>  <minimizedRMSD>  (1) 
0.309481651

$$$$
