
     RDKit          3D

 32 34  0  0  0  0  0  0  0  0999 V2000
   46.1470   31.8980   45.7140 C   0  0  0  0  0  0  0  0  0  0  0  0
   46.3950   32.8640   44.7110 C   0  0  0  0  0  0  0  0  0  0  0  0
   47.3520   32.5930   43.7620 C   0  0  0  0  0  0  0  0  0  0  0  0
   48.0130   31.4120   43.8370 N   0  0  0  0  0  0  0  0  0  0  0  0
   47.7480   30.5080   44.8180 C   0  0  0  0  0  0  0  0  0  0  0  0
   46.8200   30.7510   45.7490 N   0  0  0  0  0  0  0  0  0  0  0  0
   48.4760   29.2790   44.8810 N   0  0  0  0  0  0  0  0  0  0  0  0
   47.6970   33.4790   42.6930 C   0  0  0  0  0  0  0  0  0  0  0  0
   48.6860   34.4320   42.9330 C   0  0  0  0  0  0  0  0  0  0  0  0
   49.1120   35.3410   41.9680 C   0  0  0  0  0  0  0  0  0  0  0  0
   48.5290   35.3030   40.7090 C   0  0  0  0  0  0  0  0  0  0  0  0
   47.5590   34.3720   40.4670 C   0  0  0  0  0  0  0  0  0  0  0  0
   47.1360   33.4600   41.4420 C   0  0  0  0  0  0  0  0  0  0  0  0
   46.0970   32.4620   41.1590 C   0  0  0  0  0  0  0  0  0  0  0  0
   45.8100   32.5120   39.7990 F   0  0  0  0  0  0  0  0  0  0  0  0
   44.9670   32.7540   41.8960 F   0  0  0  0  0  0  0  0  0  0  0  0
   46.4500   31.1750   41.4870 F   0  0  0  0  0  0  0  0  0  0  0  0
   45.6350   34.1010   44.7910 C   0  0  0  0  0  0  0  0  0  0  0  0
   45.2110   35.1700   44.0340 C   0  0  0  0  0  0  0  0  0  0  0  0
   44.4830   36.0010   44.8550 C   0  0  0  0  0  0  0  0  0  0  0  0
   44.4640   35.4490   46.0880 N   0  0  0  0  0  0  0  0  0  0  0  0
   45.1540   34.3120   46.0490 N   0  0  0  0  0  0  0  0  0  0  0  0
   45.3832   32.0990   46.4796 H   0  0  0  0  0  0  0  0  0  0  0  0
   48.2721   28.5972   45.6256 H   0  0  0  0  0  0  0  0  0  0  0  0
   49.2044   29.0755   44.1818 H   0  0  0  0  0  0  0  0  0  0  0  0
   49.1506   34.4674   43.9294 H   0  0  0  0  0  0  0  0  0  0  0  0
   49.8968   36.0763   42.1994 H   0  0  0  0  0  0  0  0  0  0  0  0
   48.8411   36.0069   39.9235 H   0  0  0  0  0  0  0  0  0  0  0  0
   47.0936   34.3375   39.4709 H   0  0  0  0  0  0  0  0  0  0  0  0
   45.4169   35.3310   42.9655 H   0  0  0  0  0  0  0  0  0  0  0  0
   44.0026   36.9456   44.5600 H   0  0  0  0  0  0  0  0  0  0  0  0
   43.9953   35.8415   46.9169 H   0  0  0  0  0  0  0  0  0  0  0  0
  1  6  2  0
  2 18  1  0
  2  1  1  0
  3  4  1  0
  3  2  2  0
  4  5  2  0
  5  7  1  0
  5  6  1  0
  8  9  2  0
  8  3  1  0
 10  9  1  0
 11 10  2  0
 12 11  1  0
 12 13  2  0
 13  8  1  0
 14 13  1  0
 14 17  1  0
 14 16  1  0
 15 14  1  0
 18 22  2  0
 19 18  1  0
 19 20  2  0
 20 21  1  0
 22 21  1  0
  1 23  1  0
  7 24  1  0
  7 25  1  0
  9 26  1  0
 10 27  1  0
 11 28  1  0
 12 29  1  0
 19 30  1  0
 20 31  1  0
 21 32  1  0
M  ISO  8  23  14  26  14  27  14  28  14  29  14  30  14  31  14  32   9
M  END
>  <minimizedAffinity>  (1) 
-5.94773865

>  <minimizedRMSD>  (1) 
3.48150253

$$$$
