
     RDKit          3D

 30 32  0  0  1  0  0  0  0  0999 V2000
   44.6190   34.3670   43.9090 C   0  0  1  0  0  0  0  0  0  0  0  0
   45.1100   35.8210   43.9850 C   0  0  0  0  0  0  0  0  0  0  0  0
   44.9800   35.0990   42.6920 C   0  0  1  0  0  0  0  0  0  0  0  0
   46.2590   34.9730   41.9720 C   0  0  0  0  0  0  0  0  0  0  0  0
   46.2460   34.2520   40.7720 C   0  0  0  0  0  0  0  0  0  0  0  0
   47.3670   34.0490   39.9630 C   0  0  0  0  0  0  0  0  0  0  0  0
   48.5680   34.5930   40.3640 C   0  0  0  0  0  0  0  0  0  0  0  0
   48.6190   35.3120   41.5410 C   0  0  0  0  0  0  0  0  0  0  0  0
   47.4920   35.4890   42.3130 C   0  0  0  0  0  0  0  0  0  0  0  0
   45.5030   33.3790   44.5610 C   0  0  0  0  0  0  0  0  0  0  0  0
   46.1690   32.4630   43.7100 C   0  0  0  0  0  0  0  0  0  0  0  0
   47.0170   31.5390   44.2930 C   0  0  0  0  0  0  0  0  0  0  0  0
   47.1640   31.5610   45.6480 N   0  0  0  0  0  0  0  0  0  0  0  0
   46.5090   32.4510   46.4230 C   0  0  0  0  0  0  0  0  0  0  0  0
   45.6780   33.3590   45.8680 N   0  0  0  0  0  0  0  0  0  0  0  0
   46.8080   32.3090   47.8850 C   0  0  0  0  0  0  0  0  0  0  0  0
   45.8050   32.8360   48.6640 F   0  0  0  0  0  0  0  0  0  0  0  0
   48.0000   32.9670   48.1920 F   0  0  0  0  0  0  0  0  0  0  0  0
   47.0260   30.9620   48.1720 F   0  0  0  0  0  0  0  0  0  0  0  0
   43.7299   33.7736   44.1685 H   0  0  0  0  0  0  0  0  0  0  0  0
   44.4111   36.6307   44.2419 H   0  0  0  0  0  0  0  0  0  0  0  0
   45.9126   36.3568   44.5130 H   0  0  0  0  0  0  0  0  0  0  0  0
   44.4256   35.1767   41.7451 H   0  0  0  0  0  0  0  0  0  0  0  0
   45.2904   33.8167   40.4445 H   0  0  0  0  0  0  0  0  0  0  0  0
   47.2928   33.4702   39.0305 H   0  0  0  0  0  0  0  0  0  0  0  0
   49.4734   34.4561   39.7545 H   0  0  0  0  0  0  0  0  0  0  0  0
   49.5737   35.7502   41.8674 H   0  0  0  0  0  0  0  0  0  0  0  0
   47.5792   36.0683   43.2440 H   0  0  0  0  0  0  0  0  0  0  0  0
   46.0166   32.4859   42.6208 H   0  0  0  0  0  0  0  0  0  0  0  0
   47.5591   30.8049   43.6788 H   0  0  0  0  0  0  0  0  0  0  0  0
  1  2  1  0
  1 10  1  0
  3  1  1  0
  3  2  1  0
  4  9  1  0
  4  3  1  0
  5  4  2  0
  6  7  2  0
  6  5  1  0
  7  8  1  0
  8  9  2  0
 10 15  2  0
 11 12  2  0
 11 10  1  0
 12 13  1  0
 13 14  2  0
 14 16  1  0
 15 14  1  0
 16 19  1  0
 16 18  1  0
 16 17  1  0
  1 20  1  6
  2 21  1  0
  2 22  1  0
  3 23  1  6
  5 24  1  0
  6 25  1  0
  7 26  1  0
  8 27  1  0
  9 28  1  0
 11 29  1  0
 12 30  1  0
M  ISO  8  20  13  21  13  22  13  23  13  24  14  25  14  26  14  27  14
M  ISO  3  28  14  29  14  30  14
M  END
>  <minimizedAffinity>  (1) 
-5.33382988

>  <minimizedRMSD>  (1) 
1.38506484

$$$$
