
     RDKit          3D

 47 50  0  0  1  0  0  0  0  0999 V2000
   47.0960   34.0710   42.4850 C   0  0  2  0  0  0  0  0  0  0  0  0
   48.4950   34.5490   42.6540 C   0  0  0  0  0  0  0  0  0  0  0  0
   48.8890   35.5650   41.6430 C   0  0  0  0  0  0  0  0  0  0  0  0
   48.6960   35.0710   40.2330 C   0  0  0  0  0  0  0  0  0  0  0  0
   47.3960   34.3380   40.0220 C   0  0  0  0  0  0  0  0  0  0  0  0
   46.4560   34.4630   41.1890 C   0  0  1  0  0  0  0  0  0  0  0  0
   46.2170   34.4740   43.6000 C   0  0  0  0  0  0  0  0  0  0  0  0
   45.5230   35.6640   43.3840 C   0  0  0  0  0  0  0  0  0  0  0  0
   44.6510   36.1560   44.3680 C   0  0  0  0  0  0  0  0  0  0  0  0
   44.5490   35.3870   45.5190 N   0  0  0  0  0  0  0  0  0  0  0  0
   45.2390   34.2390   45.6910 C   0  0  0  0  0  0  0  0  0  0  0  0
   46.0680   33.7950   44.7250 N   0  0  0  0  0  0  0  0  0  0  0  0
   45.3070   33.5190   40.9420 C   0  0  2  0  0  0  0  0  0  0  0  0
   44.8900   33.2650   39.5090 C   0  0  0  0  0  0  0  0  0  0  0  0
   44.0020   33.9950   40.4340 C   0  0  1  0  0  0  0  0  0  0  0  0
   42.8000   33.4410   40.9610 N   0  0  0  0  0  0  0  0  0  0  0  0
   42.1760   32.4130   40.2040 C   0  0  0  0  0  0  0  0  0  0  0  0
   40.6960   32.3340   40.5920 C   0  0  0  0  0  0  0  0  0  0  0  0
   39.9640   33.4950   40.1370 N   0  0  0  0  0  0  0  0  0  0  0  0
   40.8530   34.6360   40.1370 C   0  0  0  0  0  0  0  0  0  0  0  0
   41.8180   34.4540   41.2930 C   0  0  0  0  0  0  0  0  0  0  0  0
   47.2018   32.9761   42.4803 H   0  0  0  0  0  0  0  0  0  0  0  0
   48.5946   34.9940   43.6550 H   0  0  0  0  0  0  0  0  0  0  0  0
   49.1571   33.6805   42.5222 H   0  0  0  0  0  0  0  0  0  0  0  0
   48.2758   36.4664   41.7894 H   0  0  0  0  0  0  0  0  0  0  0  0
   49.9587   35.7810   41.7812 H   0  0  0  0  0  0  0  0  0  0  0  0
   48.7209   35.9368   39.5549 H   0  0  0  0  0  0  0  0  0  0  0  0
   49.5061   34.3555   40.0286 H   0  0  0  0  0  0  0  0  0  0  0  0
   46.9027   34.7488   39.1288 H   0  0  0  0  0  0  0  0  0  0  0  0
   47.6349   33.2707   39.9042 H   0  0  0  0  0  0  0  0  0  0  0  0
   46.1419   35.5141   41.2697 H   0  0  0  0  0  0  0  0  0  0  0  0
   45.6588   36.2170   42.4429 H   0  0  0  0  0  0  0  0  0  0  0  0
   44.0854   37.0901   44.2355 H   0  0  0  0  0  0  0  0  0  0  0  0
   45.1243   33.6645   46.6220 H   0  0  0  0  0  0  0  0  0  0  0  0
   45.6121   32.9171   41.8107 H   0  0  0  0  0  0  0  0  0  0  0  0
   44.6299   32.2475   39.1819 H   0  0  0  0  0  0  0  0  0  0  0  0
   45.3262   33.4685   38.5199 H   0  0  0  0  0  0  0  0  0  0  0  0
   43.4870   34.9645   40.3644 H   0  0  0  0  0  0  0  0  0  0  0  0
   42.6645   31.4506   40.4165 H   0  0  0  0  0  0  0  0  0  0  0  0
   42.2667   32.6356   39.1306 H   0  0  0  0  0  0  0  0  0  0  0  0
   40.2555   31.4339   40.1384 H   0  0  0  0  0  0  0  0  0  0  0  0
   40.6295   32.2935   41.6892 H   0  0  0  0  0  0  0  0  0  0  0  0
   39.1710   33.6740   40.7694 H   0  0  0  0  0  0  0  0  0  0  0  0
   41.4068   34.6821   39.1877 H   0  0  0  0  0  0  0  0  0  0  0  0
   40.2860   35.5723   40.2459 H   0  0  0  0  0  0  0  0  0  0  0  0
   41.2601   34.1417   42.1881 H   0  0  0  0  0  0  0  0  0  0  0  0
   42.3322   35.4065   41.4889 H   0  0  0  0  0  0  0  0  0  0  0  0
  1  2  1  0
  1  7  1  0
  3  2  1  0
  4  3  1  0
  5  4  1  0
  5  6  1  0
  6  1  1  0
  7 12  1  0
  8  7  2  0
  8  9  1  0
  9 10  2  0
 10 11  1  0
 12 11  2  0
 13  6  1  0
 14 15  1  0
 14 13  1  0
 15 13  1  0
 15 16  1  0
 16 21  1  0
 17 18  1  0
 17 16  1  0
 19 20  1  0
 19 18  1  0
 20 21  1  0
  1 22  1  6
  2 23  1  0
  2 24  1  0
  3 25  1  0
  3 26  1  0
  4 27  1  0
  4 28  1  0
  5 29  1  0
  5 30  1  0
  6 31  1  1
  8 32  1  0
  9 33  1  0
 11 34  1  0
 13 35  1  1
 14 36  1  0
 14 37  1  0
 15 38  1  6
 17 39  1  0
 17 40  1  0
 18 41  1  0
 18 42  1  0
 19 43  1  0
 20 44  1  0
 20 45  1  0
 21 46  1  0
 21 47  1  0
M  ISO  8  22  13  23  13  24  13  25  13  26  13  27  13  28  13  29  13
M  ISO  8  30  13  31  13  32  14  33  14  34  14  35  13  36  13  37  13
M  ISO  8  38  13  39  13  40  13  41  13  42  13  43   5  44  13  45  13
M  ISO  2  46  13  47  13
M  END
>  <minimizedAffinity>  (1) 
-6.06952858

>  <minimizedRMSD>  (1) 
1.21327019

$$$$
