
     RDKit          3D

 26 27  0  0  1  0  0  0  0  0999 V2000
   44.5080   35.6130   44.0080 C   0  0  1  0  0  0  0  0  0  0  0  0
   45.2390   36.7880   43.3220 C   0  0  0  0  0  0  0  0  0  0  0  0
   44.2840   35.8820   42.5890 C   0  0  1  0  0  0  0  0  0  0  0  0
   45.4160   34.5430   44.4880 C   0  0  0  0  0  0  0  0  0  0  0  0
   46.4240   34.0870   43.6010 C   0  0  0  0  0  0  0  0  0  0  0  0
   47.2880   33.1070   44.0460 C   0  0  0  0  0  0  0  0  0  0  0  0
   47.1200   32.6350   45.3180 N   0  0  0  0  0  0  0  0  0  0  0  0
   46.1570   33.0900   46.1260 C   0  0  0  0  0  0  0  0  0  0  0  0
   45.3040   34.0480   45.7050 N   0  0  0  0  0  0  0  0  0  0  0  0
   46.1460   32.4430   47.4790 C   0  0  0  0  0  0  0  0  0  0  0  0
   45.1500   32.9430   48.2850 F   0  0  0  0  0  0  0  0  0  0  0  0
   47.3780   32.6340   48.1040 F   0  0  0  0  0  0  0  0  0  0  0  0
   46.0200   31.0670   47.3180 F   0  0  0  0  0  0  0  0  0  0  0  0
   44.8030   34.9540   41.6940 O   0  0  0  0  0  0  0  0  0  0  0  0
   42.5110   35.3580   40.4210 O   0  0  0  0  0  0  0  0  0  0  0  0
   43.6170   34.3390   40.6610 P   0  0  0  0  0  0  0  0  0  0  0  0
   43.0040   32.9300   41.3710 O   0  0  0  0  0  0  0  0  0  0  0  0
   44.3520   33.9540   39.1890 O   0  0  0  0  0  0  0  0  0  0  0  0
   43.8021   35.4439   44.8345 H   0  0  0  0  0  0  0  0  0  0  0  0
   44.9588   37.8274   43.5484 H   0  0  0  0  0  0  0  0  0  0  0  0
   46.2839   37.1081   43.1966 H   0  0  0  0  0  0  0  0  0  0  0  0
   43.3970   36.0734   41.9673 H   0  0  0  0  0  0  0  0  0  0  0  0
   46.5148   34.5027   42.5866 H   0  0  0  0  0  0  0  0  0  0  0  0
   48.0868   32.7179   43.3975 H   0  0  0  0  0  0  0  0  0  0  0  0
   43.0407   33.0143   42.3567 H   0  0  0  0  0  0  0  0  0  0  0  0
   45.2158   33.5015   39.3599 H   0  0  0  0  0  0  0  0  0  0  0  0
  1  4  1  0
  2  1  1  0
  3  2  1  0
  3  1  1  0
  4  9  2  0
  5  6  2  0
  5  4  1  0
  6  7  1  0
  7  8  2  0
  8 10  1  0
  9  8  1  0
 10 12  1  0
 10 11  1  0
 13 10  1  0
 14  3  1  0
 15 16  2  0
 16 17  1  0
 16 14  1  0
 18 16  1  0
  1 19  1  1
  2 20  1  0
  2 21  1  0
  3 22  1  1
  5 23  1  0
  6 24  1  0
 17 25  1  0
 18 26  1  0
M  ISO  8  19  13  20  13  21  13  22  13  23  14  24  14  25   3  26   3
M  END
>  <minimizedAffinity>  (1) 
-4.85547972

>  <minimizedRMSD>  (1) 
1.60284996

$$$$
