
     RDKit          3D

 22 23  0  0  1  0  0  0  0  0999 V2000
   45.5970   33.4750   44.3620 C   0  0  0  0  0  0  0  0  0  0  0  0
   46.3820   32.6200   43.5490 C   0  0  0  0  0  0  0  0  0  0  0  0
   47.2030   31.7150   44.1830 C   0  0  0  0  0  0  0  0  0  0  0  0
   47.2140   31.6950   45.5500 N   0  0  0  0  0  0  0  0  0  0  0  0
   46.4600   32.5190   46.2850 C   0  0  0  0  0  0  0  0  0  0  0  0
   45.6430   33.4190   45.6810 N   0  0  0  0  0  0  0  0  0  0  0  0
   44.7080   34.4870   43.7110 C   0  0  1  0  0  0  0  0  0  0  0  0
   44.8930   35.9200   44.2320 C   0  0  0  0  0  0  0  0  0  0  0  0
   45.2550   35.5180   42.8280 C   0  0  1  0  0  0  0  0  0  0  0  0
   46.6820   35.6130   42.5870 N   0  0  0  0  0  0  0  0  0  0  0  0
   46.6340   32.3300   47.7590 C   0  0  0  0  0  0  0  0  0  0  0  0
   45.6030   32.9140   48.4720 F   0  0  0  0  0  0  0  0  0  0  0  0
   47.8300   32.9180   48.1790 F   0  0  0  0  0  0  0  0  0  0  0  0
   46.7460   30.9720   48.0310 F   0  0  0  0  0  0  0  0  0  0  0  0
   46.3369   32.6774   42.4514 H   0  0  0  0  0  0  0  0  0  0  0  0
   47.8345   31.0250   43.6041 H   0  0  0  0  0  0  0  0  0  0  0  0
   43.8891   33.7639   43.5823 H   0  0  0  0  0  0  0  0  0  0  0  0
   44.0192   36.5613   44.4197 H   0  0  0  0  0  0  0  0  0  0  0  0
   45.4111   36.3942   45.0786 H   0  0  0  0  0  0  0  0  0  0  0  0
   44.9779   35.7968   41.8006 H   0  0  0  0  0  0  0  0  0  0  0  0
   47.1808   35.6462   43.4875 H   0  0  0  0  0  0  0  0  0  0  0  0
   46.9952   34.7910   42.0512 H   0  0  0  0  0  0  0  0  0  0  0  0
  1  6  2  0
  2  3  2  0
  2  1  1  0
  3  4  1  0
  4  5  2  0
  5 11  1  0
  6  5  1  0
  7  8  1  0
  7  1  1  0
  9  7  1  0
  9  8  1  0
 10  9  1  0
 11 14  1  0
 11 13  1  0
 11 12  1  0
  2 15  1  0
  3 16  1  0
  7 17  1  6
  8 18  1  0
  8 19  1  0
  9 20  1  6
 10 21  1  0
 10 22  1  0
M  ISO  8  15  14  16  14  17  13  18  13  19  13  20  13  21   5  22   5
M  END
>  <minimizedAffinity>  (1) 
-3.84372544

>  <minimizedRMSD>  (1) 
0.636841834

$$$$
