
     RDKit          3D

 47 50  0  0  1  0  0  0  0  0999 V2000
   47.0160   34.0310   42.5330 C   0  0  2  0  0  0  0  0  0  0  0  0
   48.4300   34.4660   42.6970 C   0  0  0  0  0  0  0  0  0  0  0  0
   48.8580   35.4680   41.6920 C   0  0  0  0  0  0  0  0  0  0  0  0
   48.6120   35.0350   40.2650 C   0  0  0  0  0  0  0  0  0  0  0  0
   47.3060   34.3050   40.0730 C   0  0  0  0  0  0  0  0  0  0  0  0
   46.3780   34.4620   41.2440 C   0  0  1  0  0  0  0  0  0  0  0  0
   46.1600   34.4600   43.6580 C   0  0  0  0  0  0  0  0  0  0  0  0
   45.4920   35.6680   43.4500 C   0  0  0  0  0  0  0  0  0  0  0  0
   44.6460   36.1800   44.4450 C   0  0  0  0  0  0  0  0  0  0  0  0
   44.5380   35.4130   45.5980 N   0  0  0  0  0  0  0  0  0  0  0  0
   45.2010   34.2480   45.7630 C   0  0  0  0  0  0  0  0  0  0  0  0
   46.0030   33.7900   44.7870 N   0  0  0  0  0  0  0  0  0  0  0  0
   45.2000   33.5380   41.0080 C   0  0  2  0  0  0  0  0  0  0  0  0
   44.6760   33.4250   39.5910 C   0  0  0  0  0  0  0  0  0  0  0  0
   43.8640   34.0660   40.6500 C   0  0  1  0  0  0  0  0  0  0  0  0
   42.6300   33.3170   41.0530 C   0  0  0  0  0  0  0  0  0  0  0  0
   41.4260   34.2020   41.2790 C   0  0  0  0  0  0  0  0  0  0  0  0
   40.5630   34.1690   40.0390 C   0  0  0  0  0  0  0  0  0  0  0  0
   39.9610   32.9220   39.9470 O   0  0  0  0  0  0  0  0  0  0  0  0
   40.8390   31.8700   40.0830 C   0  0  0  0  0  0  0  0  0  0  0  0
   42.2670   32.3700   39.9020 C   0  0  0  0  0  0  0  0  0  0  0  0
   47.0846   32.9333   42.5163 H   0  0  0  0  0  0  0  0  0  0  0  0
   48.5456   34.9055   43.6987 H   0  0  0  0  0  0  0  0  0  0  0  0
   49.0617   33.5763   42.5579 H   0  0  0  0  0  0  0  0  0  0  0  0
   48.3041   36.4010   41.8730 H   0  0  0  0  0  0  0  0  0  0  0  0
   49.9442   35.5980   41.8076 H   0  0  0  0  0  0  0  0  0  0  0  0
   48.6075   35.9301   39.6257 H   0  0  0  0  0  0  0  0  0  0  0  0
   49.4163   34.3340   39.9970 H   0  0  0  0  0  0  0  0  0  0  0  0
   46.8098   34.7013   39.1748 H   0  0  0  0  0  0  0  0  0  0  0  0
   47.5352   33.2340   39.9712 H   0  0  0  0  0  0  0  0  0  0  0  0
   46.0969   35.5224   41.3252 H   0  0  0  0  0  0  0  0  0  0  0  0
   45.6288   36.2177   42.5071 H   0  0  0  0  0  0  0  0  0  0  0  0
   44.1028   37.1283   44.3201 H   0  0  0  0  0  0  0  0  0  0  0  0
   45.0847   33.6751   46.6948 H   0  0  0  0  0  0  0  0  0  0  0  0
   45.5610   32.8546   41.7908 H   0  0  0  0  0  0  0  0  0  0  0  0
   44.3825   32.4447   39.1874 H   0  0  0  0  0  0  0  0  0  0  0  0
   45.0398   33.7222   38.5963 H   0  0  0  0  0  0  0  0  0  0  0  0
   43.3875   35.0452   40.8054 H   0  0  0  0  0  0  0  0  0  0  0  0
   42.8587   32.8071   42.0004 H   0  0  0  0  0  0  0  0  0  0  0  0
   40.8508   33.8321   42.1406 H   0  0  0  0  0  0  0  0  0  0  0  0
   41.7508   35.2329   41.4831 H   0  0  0  0  0  0  0  0  0  0  0  0
   39.7901   34.9488   40.1055 H   0  0  0  0  0  0  0  0  0  0  0  0
   41.1813   34.3525   39.1479 H   0  0  0  0  0  0  0  0  0  0  0  0
   40.7297   31.4290   41.0848 H   0  0  0  0  0  0  0  0  0  0  0  0
   40.6187   31.1090   39.3199 H   0  0  0  0  0  0  0  0  0  0  0  0
   42.9574   31.5137   39.9008 H   0  0  0  0  0  0  0  0  0  0  0  0
   42.3472   32.9087   38.9463 H   0  0  0  0  0  0  0  0  0  0  0  0
  1  2  1  0
  1  7  1  0
  3  2  1  0
  4  3  1  0
  5  4  1  0
  5  6  1  0
  6  1  1  0
  7 12  1  0
  8  7  2  0
  8  9  1  0
  9 10  2  0
 10 11  1  0
 12 11  2  0
 13  6  1  0
 14 15  1  0
 14 13  1  0
 15 13  1  0
 15 16  1  0
 16 17  1  0
 18 17  1  0
 19 18  1  0
 19 20  1  0
 21 20  1  0
 21 16  1  0
  1 22  1  6
  2 23  1  0
  2 24  1  0
  3 25  1  0
  3 26  1  0
  4 27  1  0
  4 28  1  0
  5 29  1  0
  5 30  1  0
  6 31  1  1
  8 32  1  0
  9 33  1  0
 11 34  1  0
 13 35  1  1
 14 36  1  0
 14 37  1  0
 15 38  1  6
 16 39  1  0
 17 40  1  0
 17 41  1  0
 18 42  1  0
 18 43  1  0
 20 44  1  0
 20 45  1  0
 21 46  1  0
 21 47  1  0
M  ISO  8  22  13  23  13  24  13  25  13  26  13  27  13  28  13  29  13
M  ISO  8  30  13  31  13  32  14  33  14  34  14  35  13  36  13  37  13
M  ISO  8  38  13  39  13  40  13  41  13  42  13  43  13  44  13  45  13
M  ISO  2  46  13  47  13
M  END
>  <minimizedAffinity>  (1) 
-6.02593708

>  <minimizedRMSD>  (1) 
1.04718041

$$$$
