
     RDKit          3D

 23 24  0  0  1  0  0  0  0  0999 V2000
   45.7100   33.1720   44.2290 C   0  0  0  0  0  0  0  0  0  0  0  0
   46.4200   32.1730   43.5210 C   0  0  0  0  0  0  0  0  0  0  0  0
   47.1610   31.2650   44.2510 C   0  0  0  0  0  0  0  0  0  0  0  0
   47.1770   31.3710   45.6030 N   0  0  0  0  0  0  0  0  0  0  0  0
   46.4840   32.3430   46.2440 C   0  0  0  0  0  0  0  0  0  0  0  0
   45.7520   33.2400   45.5490 N   0  0  0  0  0  0  0  0  0  0  0  0
   44.9360   34.1460   43.4340 C   0  0  1  0  0  0  0  0  0  0  0  0
   45.1700   35.6160   43.8200 C   0  0  0  0  0  0  0  0  0  0  0  0
   45.5610   35.0640   42.4760 C   0  0  1  0  0  0  0  0  0  0  0  0
   47.0590   35.1620   42.2750 C   0  0  0  0  0  0  0  0  0  0  0  0
   46.6250   32.3000   47.7360 C   0  0  0  0  0  0  0  0  0  0  0  0
   45.5780   32.9090   48.3720 F   0  0  0  0  0  0  0  0  0  0  0  0
   47.8110   32.9340   48.1110 F   0  0  0  0  0  0  0  0  0  0  0  0
   46.7830   30.9750   48.1370 F   0  0  0  0  0  0  0  0  0  0  0  0
   46.3826   32.1216   42.4228 H   0  0  0  0  0  0  0  0  0  0  0  0
   47.7282   30.4698   43.7450 H   0  0  0  0  0  0  0  0  0  0  0  0
   44.0960   33.4434   43.3302 H   0  0  0  0  0  0  0  0  0  0  0  0
   44.3209   36.3093   43.9112 H   0  0  0  0  0  0  0  0  0  0  0  0
   45.6806   36.1484   44.6360 H   0  0  0  0  0  0  0  0  0  0  0  0
   45.3325   35.2105   41.4100 H   0  0  0  0  0  0  0  0  0  0  0  0
   47.5590   35.1947   43.2543 H   0  0  0  0  0  0  0  0  0  0  0  0
   47.4116   34.2850   41.7124 H   0  0  0  0  0  0  0  0  0  0  0  0
   47.2943   36.0775   41.7124 H   0  0  0  0  0  0  0  0  0  0  0  0
  1  6  1  0
  2  1  2  0
  2  3  1  0
  3  4  2  0
  4  5  1  0
  5 11  1  0
  6  5  2  0
  7  8  1  0
  7  1  1  0
  9  7  1  0
  9  8  1  0
 10  9  1  0
 11 13  1  0
 11 14  1  0
 11 12  1  0
  2 15  1  0
  3 16  1  0
  7 17  1  6
  8 18  1  0
  8 19  1  0
  9 20  1  6
 10 21  1  0
 10 22  1  0
 10 23  1  0
M  ISO  8  15  14  16  14  17  13  18  13  19  13  20  13  21   8  22   8
M  ISO  1  23   8
M  END
>  <minimizedAffinity>  (1) 
-3.97412205

>  <minimizedRMSD>  (1) 
0.990420222

$$$$
