
     RDKit          3D

 30 32  0  0  1  0  0  0  0  0999 V2000
   44.9010   33.9940   43.3490 C   0  0  1  0  0  0  0  0  0  0  0  0
   45.5730   35.3510   42.9840 C   0  0  0  0  0  0  0  0  0  0  0  0
   45.1860   34.3100   41.9630 C   0  0  2  0  0  0  0  0  0  0  0  0
   43.9590   34.5680   41.1280 C   0  0  0  0  0  0  0  0  0  0  0  0
   43.8300   34.0180   39.8620 C   0  0  0  0  0  0  0  0  0  0  0  0
   42.7220   34.2300   39.0750 C   0  0  0  0  0  0  0  0  0  0  0  0
   41.7320   35.0070   39.5720 N   0  0  0  0  0  0  0  0  0  0  0  0
   41.8510   35.5490   40.8100 C   0  0  0  0  0  0  0  0  0  0  0  0
   42.9430   35.3360   41.5760 N   0  0  0  0  0  0  0  0  0  0  0  0
   40.8900   36.3820   41.4510 N   0  0  0  0  0  0  0  0  0  0  0  0
   45.7670   33.1100   44.1650 C   0  0  0  0  0  0  0  0  0  0  0  0
   46.6500   32.2300   43.4970 C   0  0  0  0  0  0  0  0  0  0  0  0
   47.4710   31.4050   44.2600 C   0  0  0  0  0  0  0  0  0  0  0  0
   47.3790   31.4900   45.6130 N   0  0  0  0  0  0  0  0  0  0  0  0
   46.5260   32.3400   46.2130 C   0  0  0  0  0  0  0  0  0  0  0  0
   45.7330   33.1370   45.4720 N   0  0  0  0  0  0  0  0  0  0  0  0
   46.5750   32.2860   47.7180 C   0  0  0  0  0  0  0  0  0  0  0  0
   45.5200   32.9520   48.2870 F   0  0  0  0  0  0  0  0  0  0  0  0
   47.7540   32.9140   48.1620 F   0  0  0  0  0  0  0  0  0  0  0  0
   46.6760   30.9700   48.1130 F   0  0  0  0  0  0  0  0  0  0  0  0
   43.9855   33.6219   43.8322 H   0  0  0  0  0  0  0  0  0  0  0  0
   45.0109   36.2932   43.0634 H   0  0  0  0  0  0  0  0  0  0  0  0
   46.4894   35.8896   43.2670 H   0  0  0  0  0  0  0  0  0  0  0  0
   45.7525   33.8269   41.1533 H   0  0  0  0  0  0  0  0  0  0  0  0
   44.6438   33.3888   39.4724 H   0  0  0  0  0  0  0  0  0  0  0  0
   42.6432   33.7821   38.0734 H   0  0  0  0  0  0  0  0  0  0  0  0
   41.0734   36.7462   42.3969 H   0  0  0  0  0  0  0  0  0  0  0  0
   40.0116   36.6203   40.9687 H   0  0  0  0  0  0  0  0  0  0  0  0
   46.6870   32.1983   42.3981 H   0  0  0  0  0  0  0  0  0  0  0  0
   48.1729   30.7055   43.7824 H   0  0  0  0  0  0  0  0  0  0  0  0
  1 11  1  0
  2  1  1  0
  3  2  1  0
  3  1  1  0
  4  9  1  0
  4  3  1  0
  5  4  2  0
  6  7  2  0
  6  5  1  0
  7  8  1  0
  8 10  1  0
  8  9  2  0
 11 16  1  0
 12 11  2  0
 12 13  1  0
 13 14  2  0
 14 15  1  0
 15 17  1  0
 16 15  2  0
 17 20  1  0
 17 19  1  0
 17 18  1  0
  1 21  1  6
  2 22  1  0
  2 23  1  0
  3 24  1  6
  5 25  1  0
  6 26  1  0
 10 27  1  0
 10 28  1  0
 12 29  1  0
 13 30  1  0
M  ISO  8  21  13  22  13  23  13  24  13  25  14  26  14  29  14  30  14
M  END
>  <minimizedAffinity>  (1) 
-5.08093023

>  <minimizedRMSD>  (1) 
1.03582895

$$$$
