
     RDKit          3D

 35 37  0  0  1  0  0  0  0  0999 V2000
   43.9410   34.6370   42.3590 C   0  0  1  0  0  0  0  0  0  0  0  0
   44.1410   36.1130   41.8680 C   0  0  0  0  0  0  0  0  0  0  0  0
   43.9650   34.9060   40.9520 C   0  0  2  0  0  0  0  0  0  0  0  0
   45.0920   34.1090   43.1210 C   0  0  0  0  0  0  0  0  0  0  0  0
   46.3360   34.0410   42.4720 C   0  0  0  0  0  0  0  0  0  0  0  0
   47.4270   33.5480   43.1720 C   0  0  0  0  0  0  0  0  0  0  0  0
   47.2390   33.1540   44.4570 N   0  0  0  0  0  0  0  0  0  0  0  0
   46.0460   33.2310   45.0480 C   0  0  0  0  0  0  0  0  0  0  0  0
   45.0110   33.7080   44.3560 N   0  0  0  0  0  0  0  0  0  0  0  0
   46.0380   32.7520   46.4710 C   0  0  0  0  0  0  0  0  0  0  0  0
   45.0740   33.4030   47.2230 F   0  0  0  0  0  0  0  0  0  0  0  0
   47.2760   33.0940   47.0690 F   0  0  0  0  0  0  0  0  0  0  0  0
   45.9460   31.3880   46.5020 F   0  0  0  0  0  0  0  0  0  0  0  0
   42.6220   34.7720   40.2710 C   0  0  0  0  0  0  0  0  0  0  0  0
   42.4370   35.1760   38.9720 C   0  0  0  0  0  0  0  0  0  0  0  0
   41.2340   35.0440   38.3170 C   0  0  0  0  0  0  0  0  0  0  0  0
   40.1950   34.4880   38.9960 N   0  0  0  0  0  0  0  0  0  0  0  0
   40.3750   34.0880   40.2770 C   0  0  0  0  0  0  0  0  0  0  0  0
   41.5580   34.2170   40.9250 N   0  0  0  0  0  0  0  0  0  0  0  0
   39.2790   33.4550   41.0740 C   0  0  0  0  0  0  0  0  0  0  0  0
   38.5400   32.4450   40.2250 C   0  0  0  0  0  0  0  0  0  0  0  0
   39.4910   30.9160   40.0940 S   0  0  0  0  0  0  0  0  0  0  0  0
   43.2327   34.0449   42.9572 H   0  0  0  0  0  0  0  0  0  0  0  0
   43.3384   36.8570   41.9794 H   0  0  0  0  0  0  0  0  0  0  0  0
   44.8800   36.9154   42.0095 H   0  0  0  0  0  0  0  0  0  0  0  0
   44.5547   34.5216   40.1067 H   0  0  0  0  0  0  0  0  0  0  0  0
   46.4427   34.3724   41.4286 H   0  0  0  0  0  0  0  0  0  0  0  0
   48.4175   33.4782   42.6987 H   0  0  0  0  0  0  0  0  0  0  0  0
   43.2850   35.6235   38.4328 H   0  0  0  0  0  0  0  0  0  0  0  0
   41.1163   35.3781   37.2756 H   0  0  0  0  0  0  0  0  0  0  0  0
   39.7110   32.9484   41.9496 H   0  0  0  0  0  0  0  0  0  0  0  0
   38.5756   34.2339   41.4034 H   0  0  0  0  0  0  0  0  0  0  0  0
   37.5656   32.2273   40.6867 H   0  0  0  0  0  0  0  0  0  0  0  0
   38.3963   32.8630   39.2177 H   0  0  0  0  0  0  0  0  0  0  0  0
   39.7811   30.4497   41.3491 H   0  0  0  0  0  0  0  0  0  0  0  0
  1  4  1  0
  2  1  1  0
  3  2  1  0
  3  1  1  0
  4  9  1  0
  5  4  2  0
  5  6  1  0
  6  7  2  0
  7  8  1  0
  8 10  1  0
  9  8  2  0
 10 13  1  0
 10 12  1  0
 10 11  1  0
 14 19  1  0
 14  3  1  0
 15 14  2  0
 16 15  1  0
 16 17  2  0
 17 18  1  0
 18 19  2  0
 18 20  1  0
 21 20  1  0
 22 21  1  0
  1 23  1  1
  2 24  1  0
  2 25  1  0
  3 26  1  6
  5 27  1  0
  6 28  1  0
 15 29  1  0
 16 30  1  0
 20 31  1  0
 20 32  1  0
 21 33  1  0
 21 34  1  0
 22 35  1  0
M  ISO  8  23  13  24  13  25  13  26  13  27  14  28  14  29  14  30  14
M  ISO  5  31   8  32   8  33   8  34   8  35  11
M  END
>  <minimizedAffinity>  (1) 
-5.03970146

>  <minimizedRMSD>  (1) 
0.228124425

$$$$
