
     RDKit          3D

 19 20  0  0  1  0  0  0  0  0999 V2000
   47.4590   33.9490   42.5590 C   0  0  1  0  0  0  0  0  0  0  0  0
   47.7200   34.8800   41.3450 C   0  0  1  0  0  0  0  0  0  0  0  0
   48.7500   34.5730   42.3780 C   0  0  0  0  0  0  0  0  0  0  0  0
   46.4260   34.4870   43.4650 C   0  0  0  0  0  0  0  0  0  0  0  0
   46.2170   33.8330   44.6980 C   0  0  0  0  0  0  0  0  0  0  0  0
   45.2560   34.3070   45.5990 C   0  0  0  0  0  0  0  0  0  0  0  0
   44.5520   35.4280   45.2050 N   0  0  0  0  0  0  0  0  0  0  0  0
   44.7870   36.0250   44.0080 C   0  0  0  0  0  0  0  0  0  0  0  0
   45.7010   35.5680   43.1570 N   0  0  0  0  0  0  0  0  0  0  0  0
   47.7910   34.1910   40.0380 C   0  0  0  0  0  0  0  0  0  0  0  0
   48.2810   34.6880   39.0280 O   0  0  0  0  0  0  0  0  0  0  0  0
   47.1889   32.9055   42.7783 H   0  0  0  0  0  0  0  0  0  0  0  0
   47.3054   35.8038   40.9152 H   0  0  0  0  0  0  0  0  0  0  0  0
   49.6162   33.9513   42.1076 H   0  0  0  0  0  0  0  0  0  0  0  0
   49.3821   35.2006   43.0234 H   0  0  0  0  0  0  0  0  0  0  0  0
   46.8134   32.9445   44.9529 H   0  0  0  0  0  0  0  0  0  0  0  0
   45.0722   33.8148   46.5654 H   0  0  0  0  0  0  0  0  0  0  0  0
   44.2024   36.9154   43.7335 H   0  0  0  0  0  0  0  0  0  0  0  0
   47.3804   33.1730   39.9668 H   0  0  0  0  0  0  0  0  0  0  0  0
  1  4  1  0
  2  3  1  0
  2  1  1  0
  3  1  1  0
  4  5  2  0
  5  6  1  0
  7  6  2  0
  8  7  1  0
  9  4  1  0
  9  8  2  0
 10  2  1  0
 11 10  2  0
  1 12  1  6
  2 13  1  6
  3 14  1  0
  3 15  1  0
  5 16  1  0
  6 17  1  0
  8 18  1  0
 10 19  1  0
M  ISO  8  12  13  13  13  14  13  15  13  16  14  17  14  18  14  19   6
M  END
>  <minimizedAffinity>  (1) 
-3.89951086

>  <minimizedRMSD>  (1) 
4.37177086

$$$$
