
     RDKit          3D

 39 41  0  0  1  0  0  0  0  0999 V2000
   47.0170   34.0300   42.5300 C   0  0  2  0  0  0  0  0  0  0  0  0
   48.4160   34.5170   42.6600 C   0  0  0  0  0  0  0  0  0  0  0  0
   48.7920   35.5110   41.6220 C   0  0  0  0  0  0  0  0  0  0  0  0
   48.5490   35.0220   40.2150 C   0  0  0  0  0  0  0  0  0  0  0  0
   47.2650   34.2490   40.0580 C   0  0  0  0  0  0  0  0  0  0  0  0
   46.3460   34.4100   41.2410 C   0  0  1  0  0  0  0  0  0  0  0  0
   46.1600   34.4580   43.6560 C   0  0  0  0  0  0  0  0  0  0  0  0
   45.4920   35.6650   43.4490 C   0  0  0  0  0  0  0  0  0  0  0  0
   44.6440   36.1780   44.4410 C   0  0  0  0  0  0  0  0  0  0  0  0
   44.5340   35.4110   45.5930 N   0  0  0  0  0  0  0  0  0  0  0  0
   45.1970   34.2450   45.7580 C   0  0  0  0  0  0  0  0  0  0  0  0
   46.0060   33.7810   44.7830 N   0  0  0  0  0  0  0  0  0  0  0  0
   45.2000   33.4460   41.0390 C   0  0  2  0  0  0  0  0  0  0  0  0
   44.5820   33.3530   39.6620 C   0  0  0  0  0  0  0  0  0  0  0  0
   43.8230   33.9090   40.7850 C   0  0  1  0  0  0  0  0  0  0  0  0
   42.8510   33.2810   41.4900 O   0  0  0  0  0  0  0  0  0  0  0  0
   40.7650   31.8390   40.6720 O   0  0  0  0  0  0  0  0  0  0  0  0
   41.3190   33.1830   41.0220 P   0  0  0  0  0  0  0  0  0  0  0  0
   40.3060   33.7920   42.2450 O   0  0  0  0  0  0  0  0  0  0  0  0
   41.0440   34.1630   39.6550 O   0  0  0  0  0  0  0  0  0  0  0  0
   47.1247   32.9353   42.5414 H   0  0  0  0  0  0  0  0  0  0  0  0
   48.5324   34.9842   43.6490 H   0  0  0  0  0  0  0  0  0  0  0  0
   49.0767   33.6469   42.5318 H   0  0  0  0  0  0  0  0  0  0  0  0
   48.2001   36.4243   41.7818 H   0  0  0  0  0  0  0  0  0  0  0  0
   49.8718   35.6956   41.7220 H   0  0  0  0  0  0  0  0  0  0  0  0
   48.5142   35.8938   39.5451 H   0  0  0  0  0  0  0  0  0  0  0  0
   49.3714   34.3353   39.9658 H   0  0  0  0  0  0  0  0  0  0  0  0
   46.7458   34.6069   39.1567 H   0  0  0  0  0  0  0  0  0  0  0  0
   47.5243   33.1829   39.9790 H   0  0  0  0  0  0  0  0  0  0  0  0
   46.0315   35.4621   41.3050 H   0  0  0  0  0  0  0  0  0  0  0  0
   45.6306   36.2150   42.5065 H   0  0  0  0  0  0  0  0  0  0  0  0
   44.1013   37.1264   44.3147 H   0  0  0  0  0  0  0  0  0  0  0  0
   45.0768   33.6727   46.6897 H   0  0  0  0  0  0  0  0  0  0  0  0
   45.6503   32.7594   41.7709 H   0  0  0  0  0  0  0  0  0  0  0  0
   44.3104   32.3723   39.2442 H   0  0  0  0  0  0  0  0  0  0  0  0
   44.8582   33.7023   38.6562 H   0  0  0  0  0  0  0  0  0  0  0  0
   43.2343   34.8363   40.8443 H   0  0  0  0  0  0  0  0  0  0  0  0
   40.6847   33.5643   43.1309 H   0  0  0  0  0  0  0  0  0  0  0  0
   40.7885   35.0736   39.9478 H   0  0  0  0  0  0  0  0  0  0  0  0
  1  2  1  0
  1  7  1  0
  3  2  1  0
  4  3  1  0
  5  4  1  0
  5  6  1  0
  6  1  1  0
  7 12  1  0
  8  7  2  0
  8  9  1  0
  9 10  2  0
 10 11  1  0
 12 11  2  0
 13  6  1  0
 14 15  1  0
 14 13  1  0
 15 13  1  0
 15 16  1  0
 17 18  2  0
 18 16  1  0
 18 19  1  0
 20 18  1  0
  1 21  1  6
  2 22  1  0
  2 23  1  0
  3 24  1  0
  3 25  1  0
  4 26  1  0
  4 27  1  0
  5 28  1  0
  5 29  1  0
  6 30  1  1
  8 31  1  0
  9 32  1  0
 11 33  1  0
 13 34  1  1
 14 35  1  0
 14 36  1  0
 15 37  1  6
 19 38  1  0
 20 39  1  0
M  ISO  8  21  13  22  13  23  13  24  13  25  13  26  13  27  13  28  13
M  ISO  8  29  13  30  13  31  14  32  14  33  14  34  13  35  13  36  13
M  ISO  3  37  13  38   3  39   3
M  END
>  <minimizedAffinity>  (1) 
-5.85516167

>  <minimizedRMSD>  (1) 
0.801860392

$$$$
