
     RDKit          3D

 18 19  0  0  1  0  0  0  0  0999 V2000
   45.5710   33.7930   44.3940 C   0  0  0  0  0  0  0  0  0  0  0  0
   46.6880   33.0550   43.9280 C   0  0  0  0  0  0  0  0  0  0  0  0
   47.4430   32.2990   44.8380 C   0  0  0  0  0  0  0  0  0  0  0  0
   47.0240   32.3380   46.1420 N   0  0  0  0  0  0  0  0  0  0  0  0
   45.9560   33.0520   46.5490 C   0  0  0  0  0  0  0  0  0  0  0  0
   45.2400   33.7690   45.6840 N   0  0  0  0  0  0  0  0  0  0  0  0
   44.8050   34.5810   43.4010 C   0  0  1  0  0  0  0  0  0  0  0  0
   44.3860   35.9770   43.9470 C   0  0  2  0  0  0  0  0  0  0  0  0
   45.2970   35.7890   42.7770 C   0  0  0  0  0  0  0  0  0  0  0  0
   44.8870   36.3780   45.1620 O   0  0  0  0  0  0  0  0  0  0  0  0
   46.9606   33.0747   42.8625 H   0  0  0  0  0  0  0  0  0  0  0  0
   48.3178   31.7110   44.5236 H   0  0  0  0  0  0  0  0  0  0  0  0
   45.6711   33.0427   47.6114 H   0  0  0  0  0  0  0  0  0  0  0  0
   44.3621   33.6773   42.9570 H   0  0  0  0  0  0  0  0  0  0  0  0
   43.4516   36.5263   44.1344 H   0  0  0  0  0  0  0  0  0  0  0  0
   46.3608   36.0512   42.8747 H   0  0  0  0  0  0  0  0  0  0  0  0
   45.2832   36.1631   41.7426 H   0  0  0  0  0  0  0  0  0  0  0  0
   44.3630   35.9586   45.8897 H   0  0  0  0  0  0  0  0  0  0  0  0
  1  6  1  0
  2  1  2  0
  2  3  1  0
  3  4  2  0
  4  5  1  0
  6  5  2  0
  7  8  1  0
  7  1  1  0
  8 10  1  0
  9  7  1  0
  9  8  1  0
  2 11  1  0
  3 12  1  0
  5 13  1  0
  7 14  1  6
  8 15  1  6
  9 16  1  0
  9 17  1  0
 10 18  1  0
M  ISO  8  11  14  12  14  13  14  14  13  15  13  16  13  17  13  18   3
M  END
>  <minimizedAffinity>  (1) 
-3.10288119

>  <minimizedRMSD>  (1) 
0.513262153

$$$$
