
     RDKit          3D

 22 23  0  0  1  0  0  0  0  0999 V2000
   45.2320   33.5580   43.7120 C   0  0  1  0  0  0  0  0  0  0  0  0
   45.8420   34.9800   43.5110 C   0  0  1  0  0  0  0  0  0  0  0  0
   45.9010   33.8860   42.4900 C   0  0  0  0  0  0  0  0  0  0  0  0
   45.8820   32.8430   44.8290 C   0  0  0  0  0  0  0  0  0  0  0  0
   46.7610   31.7550   44.5330 C   0  0  0  0  0  0  0  0  0  0  0  0
   47.4010   31.0740   45.5600 C   0  0  0  0  0  0  0  0  0  0  0  0
   47.1440   31.4970   46.8330 N   0  0  0  0  0  0  0  0  0  0  0  0
   46.2960   32.5440   47.0710 C   0  0  0  0  0  0  0  0  0  0  0  0
   45.6890   33.1910   46.0940 N   0  0  0  0  0  0  0  0  0  0  0  0
   46.0520   32.9610   48.4140 N   0  0  0  0  0  0  0  0  0  0  0  0
   44.8130   36.0510   43.2430 C   0  0  0  0  0  0  0  0  0  0  0  0
   45.3670   37.3130   43.2200 F   0  0  0  0  0  0  0  0  0  0  0  0
   44.2580   35.8140   41.9770 F   0  0  0  0  0  0  0  0  0  0  0  0
   43.7770   35.9640   44.1470 F   0  0  0  0  0  0  0  0  0  0  0  0
   44.2620   33.0676   43.8811 H   0  0  0  0  0  0  0  0  0  0  0  0
   46.5652   35.6324   44.0222 H   0  0  0  0  0  0  0  0  0  0  0  0
   45.3139   33.9820   41.5647 H   0  0  0  0  0  0  0  0  0  0  0  0
   46.7289   33.4177   41.9375 H   0  0  0  0  0  0  0  0  0  0  0  0
   46.9309   31.4563   43.4880 H   0  0  0  0  0  0  0  0  0  0  0  0
   48.0822   30.2343   45.3581 H   0  0  0  0  0  0  0  0  0  0  0  0
   45.4149   33.7484   48.6011 H   0  0  0  0  0  0  0  0  0  0  0  0
   46.5130   32.4745   49.1961 H   0  0  0  0  0  0  0  0  0  0  0  0
  1  4  1  0
  2  1  1  0
  3  2  1  0
  3  1  1  0
  4  9  1  0
  5  4  2  0
  5  6  1  0
  6  7  2  0
  7  8  1  0
  8 10  1  0
  9  8  2  0
 11  2  1  0
 11 14  1  0
 12 11  1  0
 13 11  1  0
  1 15  1  6
  2 16  1  1
  3 17  1  0
  3 18  1  0
  5 19  1  0
  6 20  1  0
 10 21  1  0
 10 22  1  0
M  ISO  6  15  13  16  13  17  13  18  13  19  14  20  14
M  END
>  <minimizedAffinity>  (1) 
-4.24354076

>  <minimizedRMSD>  (1) 
0.272729784

$$$$
