
     RDKit          3D

 24 25  0  0  1  0  0  0  0  0999 V2000
   46.1170   33.5320   45.5620 C   0  0  0  0  0  0  0  0  0  0  0  0
   47.1700   33.2590   44.6220 C   0  0  0  0  0  0  0  0  0  0  0  0
   47.1120   33.7880   43.3350 C   0  0  0  0  0  0  0  0  0  0  0  0
   46.0200   34.5540   43.0460 N   0  0  0  0  0  0  0  0  0  0  0  0
   45.0470   34.7880   43.9580 C   0  0  0  0  0  0  0  0  0  0  0  0
   45.1000   34.2870   45.1860 N   0  0  0  0  0  0  0  0  0  0  0  0
   43.2810   35.4390   42.3230 C   0  0  0  0  0  0  0  0  0  0  0  0
   43.6800   34.5350   41.5270 O   0  0  0  0  0  0  0  0  0  0  0  0
   43.9440   35.6000   43.5640 N   0  0  0  0  0  0  0  0  0  0  0  0
   46.2290   32.9410   46.9040 C   0  0  1  0  0  0  0  0  0  0  0  0
   46.0050   31.3950   46.8760 C   0  0  1  0  0  0  0  0  0  0  0  0
   47.2730   32.0600   47.3280 C   0  0  0  0  0  0  0  0  0  0  0  0
   45.1180   30.8940   47.9920 C   0  0  0  0  0  0  0  0  0  0  0  0
   44.5160   29.6960   47.6840 F   0  0  0  0  0  0  0  0  0  0  0  0
   45.9210   30.6840   49.1270 F   0  0  0  0  0  0  0  0  0  0  0  0
   44.1980   31.8520   48.3600 F   0  0  0  0  0  0  0  0  0  0  0  0
   48.0228   32.6313   44.9198 H   0  0  0  0  0  0  0  0  0  0  0  0
   47.9019   33.5991   42.5931 H   0  0  0  0  0  0  0  0  0  0  0  0
   42.4340   36.0870   42.0535 H   0  0  0  0  0  0  0  0  0  0  0  0
   43.6157   36.3337   44.2080 H   0  0  0  0  0  0  0  0  0  0  0  0
   45.8426   33.8522   47.3840 H   0  0  0  0  0  0  0  0  0  0  0  0
   45.7256   30.6277   46.1389 H   0  0  0  0  0  0  0  0  0  0  0  0
   48.1792   31.9646   46.7118 H   0  0  0  0  0  0  0  0  0  0  0  0
   47.8703   31.9913   48.2492 H   0  0  0  0  0  0  0  0  0  0  0  0
  1 10  1  0
  2  1  2  0
  3  2  1  0
  4  3  2  0
  4  5  1  0
  5  6  2  0
  6  1  1  0
  7  9  1  0
  8  7  2  0
  9  5  1  0
 10 12  1  0
 11 10  1  0
 11 12  1  0
 11 13  1  0
 13 16  1  0
 13 15  1  0
 14 13  1  0
  2 17  1  0
  3 18  1  0
  7 19  1  0
  9 20  1  0
 10 21  1  1
 11 22  1  6
 12 23  1  0
 12 24  1  0
M  ISO  7  17  14  18  14  19   6  21  13  22  13  23  13  24  13
M  END
>  <minimizedAffinity>  (1) 
-5.04276419

>  <minimizedRMSD>  (1) 
5.90110922

$$$$
