
     RDKit          3D

 36 38  0  0  1  0  0  0  0  0999 V2000
   45.9070   32.8950   44.0950 C   0  0  0  0  0  0  0  0  0  0  0  0
   46.4030   31.6540   43.6000 C   0  0  0  0  0  0  0  0  0  0  0  0
   47.1700   30.8280   44.4130 C   0  0  0  0  0  0  0  0  0  0  0  0
   47.4170   31.2590   45.6800 N   0  0  0  0  0  0  0  0  0  0  0  0
   46.9230   32.4600   46.1200 C   0  0  0  0  0  0  0  0  0  0  0  0
   46.1850   33.2560   45.3430 N   0  0  0  0  0  0  0  0  0  0  0  0
   45.1130   33.7290   43.1850 C   0  0  1  0  0  0  0  0  0  0  0  0
   45.7560   35.1540   43.0180 C   0  0  1  0  0  0  0  0  0  0  0  0
   45.5080   34.1650   41.9020 C   0  0  0  0  0  0  0  0  0  0  0  0
   44.7510   36.2830   43.0610 C   0  0  0  0  0  0  0  0  0  0  0  0
   45.3200   37.5190   43.1610 F   0  0  0  0  0  0  0  0  0  0  0  0
   44.0030   36.2560   41.8710 F   0  0  0  0  0  0  0  0  0  0  0  0
   43.8190   36.0780   44.0680 F   0  0  0  0  0  0  0  0  0  0  0  0
   47.2500   32.7810   47.4270 O   0  0  0  0  0  0  0  0  0  0  0  0
   46.1420   29.3290   48.0880 N   0  0  0  0  0  0  0  0  0  0  0  0
   45.1490   30.1830   48.7060 C   0  0  0  0  0  0  0  0  0  0  0  0
   45.2980   31.5550   48.0830 C   0  0  0  0  0  0  0  0  0  0  0  0
   46.6500   32.0770   48.4790 C   0  0  0  0  0  0  0  0  0  0  0  0
   47.5530   31.0600   49.1110 C   0  0  0  0  0  0  0  0  0  0  0  0
   47.4870   29.7080   48.4640 C   0  0  0  0  0  0  0  0  0  0  0  0
   46.1773   31.3479   42.5678 H   0  0  0  0  0  0  0  0  0  0  0  0
   47.5608   29.8668   44.0479 H   0  0  0  0  0  0  0  0  0  0  0  0
   44.1766   33.2364   43.4859 H   0  0  0  0  0  0  0  0  0  0  0  0
   46.6071   35.7137   43.4331 H   0  0  0  0  0  0  0  0  0  0  0  0
   44.7361   34.3876   41.1506 H   0  0  0  0  0  0  0  0  0  0  0  0
   46.1608   33.7277   41.1322 H   0  0  0  0  0  0  0  0  0  0  0  0
   46.0502   29.3979   47.0644 H   0  0  0  0  0  0  0  0  0  0  0  0
   44.1399   29.7888   48.5153 H   0  0  0  0  0  0  0  0  0  0  0  0
   45.2926   30.2282   49.7957 H   0  0  0  0  0  0  0  0  0  0  0  0
   44.5105   32.2262   48.4563 H   0  0  0  0  0  0  0  0  0  0  0  0
   45.2056   31.4994   46.9883 H   0  0  0  0  0  0  0  0  0  0  0  0
   46.4708   32.7948   49.2930 H   0  0  0  0  0  0  0  0  0  0  0  0
   48.5881   31.4262   49.0448 H   0  0  0  0  0  0  0  0  0  0  0  0
   47.2170   30.9348   50.1509 H   0  0  0  0  0  0  0  0  0  0  0  0
   47.8775   28.9611   49.1709 H   0  0  0  0  0  0  0  0  0  0  0  0
   48.0870   29.7529   47.5432 H   0  0  0  0  0  0  0  0  0  0  0  0
  1  6  1  0
  2  1  2  0
  2  3  1  0
  3  4  2  0
  4  5  1  0
  5 14  1  0
  6  5  2  0
  7  1  1  0
  8 10  1  0
  8  7  1  0
  9  8  1  0
  9  7  1  0
 10 11  1  0
 10 13  1  0
 12 10  1  0
 14 18  1  0
 15 20  1  0
 15 16  1  0
 17 18  1  0
 17 16  1  0
 18 19  1  0
 20 19  1  0
  2 21  1  0
  3 22  1  0
  7 23  1  6
  8 24  1  1
  9 25  1  0
  9 26  1  0
 15 27  1  0
 16 28  1  0
 16 29  1  0
 17 30  1  0
 17 31  1  0
 18 32  1  0
 19 33  1  0
 19 34  1  0
 20 35  1  0
 20 36  1  0
M  ISO  8  21  14  22  14  23  13  24  13  25  13  26  13  27   5  28  13
M  ISO  8  29  13  30  13  31  13  32  13  33  13  34  13  35  13  36  13
M  END
>  <minimizedAffinity>  (1) 
-4.95112228

>  <minimizedRMSD>  (1) 
1.48119831

$$$$
