
     RDKit          3D

 28 30  0  0  1  0  0  0  0  0999 V2000
   46.0360   32.8080   44.2550 C   0  0  0  0  0  0  0  0  0  0  0  0
   46.8860   31.7860   43.7430 C   0  0  0  0  0  0  0  0  0  0  0  0
   47.6080   30.9510   44.5980 C   0  0  0  0  0  0  0  0  0  0  0  0
   47.4400   31.1830   45.9350 N   0  0  0  0  0  0  0  0  0  0  0  0
   46.6100   32.1790   46.3800 C   0  0  0  0  0  0  0  0  0  0  0  0
   45.9250   32.9710   45.5740 N   0  0  0  0  0  0  0  0  0  0  0  0
   45.3190   33.6610   43.2940 C   0  0  1  0  0  0  0  0  0  0  0  0
   45.9220   35.1130   43.2610 C   0  0  1  0  0  0  0  0  0  0  0  0
   45.8510   34.1670   42.0850 C   0  0  0  0  0  0  0  0  0  0  0  0
   44.8780   36.2040   43.2340 C   0  0  0  0  0  0  0  0  0  0  0  0
   45.4010   37.4620   43.2380 F   0  0  0  0  0  0  0  0  0  0  0  0
   44.1140   36.0580   42.0560 F   0  0  0  0  0  0  0  0  0  0  0  0
   43.9630   36.0360   44.2630 F   0  0  0  0  0  0  0  0  0  0  0  0
   46.5570   32.2790   47.7760 O   0  0  0  0  0  0  0  0  0  0  0  0
   46.3260   31.1760   48.6030 C   0  0  0  0  0  0  0  0  0  0  0  0
   45.1200   30.3420   48.4970 C   0  0  0  0  0  0  0  0  0  0  0  0
   45.1900   31.3230   49.5940 C   0  0  0  0  0  0  0  0  0  0  0  0
   46.9752   31.6523   42.6548 H   0  0  0  0  0  0  0  0  0  0  0  0
   48.2695   30.1575   44.2202 H   0  0  0  0  0  0  0  0  0  0  0  0
   44.3717   33.1281   43.4632 H   0  0  0  0  0  0  0  0  0  0  0  0
   46.6957   35.6835   43.7957 H   0  0  0  0  0  0  0  0  0  0  0  0
   45.1682   34.3961   41.2535 H   0  0  0  0  0  0  0  0  0  0  0  0
   46.6092   33.7865   41.3848 H   0  0  0  0  0  0  0  0  0  0  0  0
   47.3987   30.9326   48.6102 H   0  0  0  0  0  0  0  0  0  0  0  0
   44.4175   30.5035   47.6660 H   0  0  0  0  0  0  0  0  0  0  0  0
   44.9399   29.2579   48.4489 H   0  0  0  0  0  0  0  0  0  0  0  0
   45.3148   30.9831   50.6327 H   0  0  0  0  0  0  0  0  0  0  0  0
   44.5587   32.1523   49.9457 H   0  0  0  0  0  0  0  0  0  0  0  0
  1  6  1  0
  2  1  2  0
  2  3  1  0
  3  4  2  0
  4  5  1  0
  5 14  1  0
  6  5  2  0
  7  1  1  0
  8  7  1  0
  9  8  1  0
  9  7  1  0
 10 11  1  0
 10  8  1  0
 10 13  1  0
 12 10  1  0
 14 15  1  0
 15 17  1  0
 16 15  1  0
 16 17  1  0
  2 18  1  0
  3 19  1  0
  7 20  1  6
  8 21  1  1
  9 22  1  0
  9 23  1  0
 15 24  1  0
 16 25  1  0
 16 26  1  0
 17 27  1  0
 17 28  1  0
M  ISO  8  18  14  19  14  20  13  21  13  22  13  23  13  24  13  25  13
M  ISO  3  26  13  27  13  28  13
M  END
>  <minimizedAffinity>  (1) 
-4.63473845

>  <minimizedRMSD>  (1) 
0.894117653

$$$$
