
     RDKit          3D

 27 29  0  0  0  0  0  0  0  0999 V2000
   45.7380   32.5130   47.2590 O   0  0  0  0  0  0  0  0  0  0  0  0
   46.9440   30.5690   46.7470 C   0  0  0  0  0  0  0  0  0  0  0  0
   46.7100   31.5910   47.6520 C   0  0  0  0  0  0  0  0  0  0  0  0
   47.3970   31.6830   48.8560 C   0  0  0  0  0  0  0  0  0  0  0  0
   48.3320   30.7350   49.1570 C   0  0  0  0  0  0  0  0  0  0  0  0
   49.1580   30.5230   50.2050 N   0  0  0  0  0  0  0  0  0  0  0  0
   49.8960   29.4110   49.9880 C   0  0  0  0  0  0  0  0  0  0  0  0
   49.5050   28.9400   48.7820 N   0  0  0  0  0  0  0  0  0  0  0  0
   48.5510   29.7240   48.2440 C   0  0  0  0  0  0  0  0  0  0  0  0
   47.8850   29.6030   47.0340 C   0  0  0  0  0  0  0  0  0  0  0  0
   45.0510   34.9940   44.7850 C   0  0  0  0  0  0  0  0  0  0  0  0
   45.9940   34.7330   43.7970 C   0  0  0  0  0  0  0  0  0  0  0  0
   46.8820   33.6670   44.0090 C   0  0  0  0  0  0  0  0  0  0  0  0
   46.7760   32.9540   45.1560 N   0  0  0  0  0  0  0  0  0  0  0  0
   45.8350   33.2500   46.0930 C   0  0  0  0  0  0  0  0  0  0  0  0
   44.9760   34.2580   45.9180 N   0  0  0  0  0  0  0  0  0  0  0  0
   45.9850   35.6090   42.5870 C   0  0  0  0  0  0  0  0  0  0  0  0
   45.4200   36.7980   42.9800 F   0  0  0  0  0  0  0  0  0  0  0  0
   45.1920   34.9820   41.6350 F   0  0  0  0  0  0  0  0  0  0  0  0
   47.2740   35.7210   42.1240 F   0  0  0  0  0  0  0  0  0  0  0  0
   46.3812   30.5282   45.8028 H   0  0  0  0  0  0  0  0  0  0  0  0
   47.1909   32.5065   49.5555 H   0  0  0  0  0  0  0  0  0  0  0  0
   49.2167   31.1188   51.0431 H   0  0  0  0  0  0  0  0  0  0  0  0
   50.6570   28.9788   50.6545 H   0  0  0  0  0  0  0  0  0  0  0  0
   48.0967   28.7779   46.3380 H   0  0  0  0  0  0  0  0  0  0  0  0
   44.3441   35.8244   44.6411 H   0  0  0  0  0  0  0  0  0  0  0  0
   47.6475   33.4159   43.2600 H   0  0  0  0  0  0  0  0  0  0  0  0
  1  3  1  0
  2 10  2  0
  2  3  1  0
  3  4  2  0
  4  5  1  0
  5  6  1  0
  7  6  1  0
  8  7  2  0
  9  8  1  0
  9  5  2  0
 10  9  1  0
 11 16  2  0
 12 13  2  0
 12 11  1  0
 13 14  1  0
 14 15  2  0
 15  1  1  0
 16 15  1  0
 17 18  1  0
 17 12  1  0
 19 17  1  0
 20 17  1  0
  2 21  1  0
  4 22  1  0
  6 23  1  0
  7 24  1  0
 10 25  1  0
 11 26  1  0
 13 27  1  0
M  ISO  7  21  14  22  14  23   9  24  14  25  14  26  14  27  14
M  END
>  <minimizedAffinity>  (1) 
-5.66346359

>  <minimizedRMSD>  (1) 
0.455053329

$$$$
