
     RDKit          3D

 17 17  0  0  0  0  0  0  0  0999 V2000
   44.7240   35.3890   45.0240 C   0  0  0  0  0  0  0  0  0  0  0  0
   45.6050   34.9270   44.0430 C   0  0  0  0  0  0  0  0  0  0  0  0
   46.3470   33.7760   44.3330 C   0  0  0  0  0  0  0  0  0  0  0  0
   46.1860   33.1710   45.5270 N   0  0  0  0  0  0  0  0  0  0  0  0
   45.3270   33.6510   46.4460 C   0  0  0  0  0  0  0  0  0  0  0  0
   44.5940   34.7500   46.2130 N   0  0  0  0  0  0  0  0  0  0  0  0
   45.6750   35.7040   42.7660 C   0  0  0  0  0  0  0  0  0  0  0  0
   45.2500   36.9730   43.0760 F   0  0  0  0  0  0  0  0  0  0  0  0
   44.8000   35.0990   41.8800 F   0  0  0  0  0  0  0  0  0  0  0  0
   46.9730   35.6440   42.3060 F   0  0  0  0  0  0  0  0  0  0  0  0
   45.1420   33.0460   47.6850 O   0  0  0  0  0  0  0  0  0  0  0  0
   46.1550   32.2840   48.3090 C   0  0  0  0  0  0  0  0  0  0  0  0
   44.1235   36.2895   44.8279 H   0  0  0  0  0  0  0  0  0  0  0  0
   47.0538   33.3695   43.5946 H   0  0  0  0  0  0  0  0  0  0  0  0
   46.0519   32.3616   49.4014 H   0  0  0  0  0  0  0  0  0  0  0  0
   46.0610   31.2308   48.0057 H   0  0  0  0  0  0  0  0  0  0  0  0
   47.1408   32.6663   48.0057 H   0  0  0  0  0  0  0  0  0  0  0  0
  1  6  2  0
  2  3  2  0
  2  1  1  0
  3  4  1  0
  4  5  2  0
  5 11  1  0
  6  5  1  0
  7  8  1  0
  7  2  1  0
  9  7  1  0
 10  7  1  0
 11 12  1  0
  1 13  1  0
  3 14  1  0
 12 15  1  0
 12 16  1  0
 12 17  1  0
M  ISO  5  13  14  14  14  15   8  16   8  17   8
M  END
>  <minimizedAffinity>  (1) 
-4.01208591

>  <minimizedRMSD>  (1) 
0.403434664

$$$$
