
     RDKit          3D

 35 37  0  0  1  0  0  0  0  0999 V2000
   47.1870   34.0590   42.4920 C   0  0  2  0  0  0  0  0  0  0  0  0
   48.5230   34.7070   42.5840 C   0  0  0  0  0  0  0  0  0  0  0  0
   48.7830   35.6700   41.4850 C   0  0  0  0  0  0  0  0  0  0  0  0
   48.6190   35.0310   40.1220 C   0  0  0  0  0  0  0  0  0  0  0  0
   47.3850   34.1940   40.0010 C   0  0  0  0  0  0  0  0  0  0  0  0
   46.4800   34.2700   41.1860 C   0  0  1  0  0  0  0  0  0  0  0  0
   46.2890   34.4550   43.5950 C   0  0  0  0  0  0  0  0  0  0  0  0
   45.5980   35.6470   43.3740 C   0  0  0  0  0  0  0  0  0  0  0  0
   44.7040   36.1290   44.3420 C   0  0  0  0  0  0  0  0  0  0  0  0
   44.5770   35.3500   45.4850 N   0  0  0  0  0  0  0  0  0  0  0  0
   45.2650   34.2040   45.6630 C   0  0  0  0  0  0  0  0  0  0  0  0
   46.1150   33.7690   44.7120 N   0  0  0  0  0  0  0  0  0  0  0  0
   45.4580   33.1600   41.0540 C   0  0  2  0  0  0  0  0  0  0  0  0
   44.4590   33.2510   39.9210 C   0  0  0  0  0  0  0  0  0  0  0  0
   44.0230   33.3970   41.3290 C   0  0  1  0  0  0  0  0  0  0  0  0
   43.3040   32.2150   41.8330 N   0  0  0  0  0  0  0  0  0  0  0  0
   47.4176   32.9863   42.5704 H   0  0  0  0  0  0  0  0  0  0  0  0
   48.5856   35.2444   43.5418 H   0  0  0  0  0  0  0  0  0  0  0  0
   49.2783   33.9110   42.5065 H   0  0  0  0  0  0  0  0  0  0  0  0
   48.0758   36.5080   41.5720 H   0  0  0  0  0  0  0  0  0  0  0  0
   49.8230   36.0169   41.5754 H   0  0  0  0  0  0  0  0  0  0  0  0
   48.5741   35.8290   39.3663 H   0  0  0  0  0  0  0  0  0  0  0  0
   49.4798   34.3628   39.9718 H   0  0  0  0  0  0  0  0  0  0  0  0
   46.8248   34.5300   39.1160 H   0  0  0  0  0  0  0  0  0  0  0  0
   47.7168   33.1483   39.9210 H   0  0  0  0  0  0  0  0  0  0  0  0
   46.0407   35.2784   41.1971 H   0  0  0  0  0  0  0  0  0  0  0  0
   45.7541   36.2086   42.4411 H   0  0  0  0  0  0  0  0  0  0  0  0
   44.1401   37.0634   44.2046 H   0  0  0  0  0  0  0  0  0  0  0  0
   45.1320   33.6225   46.5872 H   0  0  0  0  0  0  0  0  0  0  0  0
   46.1922   32.4271   41.4198 H   0  0  0  0  0  0  0  0  0  0  0  0
   44.4623   34.1232   39.2508 H   0  0  0  0  0  0  0  0  0  0  0  0
   44.1733   32.6068   39.0764 H   0  0  0  0  0  0  0  0  0  0  0  0
   43.4675   34.1572   41.8978 H   0  0  0  0  0  0  0  0  0  0  0  0
   43.3091   32.2234   42.8630 H   0  0  0  0  0  0  0  0  0  0  0  0
   42.3315   32.2345   41.4943 H   0  0  0  0  0  0  0  0  0  0  0  0
  1  2  1  0
  1  7  1  0
  3  2  1  0
  4  3  1  0
  5  4  1  0
  5  6  1  0
  6  1  1  0
  7 12  1  0
  8  7  2  0
  8  9  1  0
  9 10  2  0
 10 11  1  0
 12 11  2  0
 13  6  1  0
 13 15  1  0
 14 13  1  0
 14 15  1  0
 15 16  1  0
  1 17  1  1
  2 18  1  0
  2 19  1  0
  3 20  1  0
  3 21  1  0
  4 22  1  0
  4 23  1  0
  5 24  1  0
  5 25  1  0
  6 26  1  1
  8 27  1  0
  9 28  1  0
 11 29  1  0
 13 30  1  1
 14 31  1  0
 14 32  1  0
 15 33  1  6
 16 34  1  0
 16 35  1  0
M  ISO  8  17  13  18  13  19  13  20  13  21  13  22  13  23  13  24  13
M  ISO  8  25  13  26  13  27  14  28  14  29  14  30  13  31  13  32  13
M  ISO  3  33  13  34   5  35   5
M  END
>  <minimizedAffinity>  (1) 
-5.26926947

>  <minimizedRMSD>  (1) 
0.0449342877

$$$$
