
     RDKit          3D

 26 27  0  0  0  0  0  0  0  0999 V2000
   44.7050   35.4100   45.0690 C   0  0  0  0  0  0  0  0  0  0  0  0
   45.5330   35.0180   44.0080 C   0  0  0  0  0  0  0  0  0  0  0  0
   46.3010   33.8680   44.1700 C   0  0  0  0  0  0  0  0  0  0  0  0
   46.2170   33.1820   45.3340 N   0  0  0  0  0  0  0  0  0  0  0  0
   45.4060   33.5920   46.3360 C   0  0  0  0  0  0  0  0  0  0  0  0
   44.6570   34.6880   46.2150 N   0  0  0  0  0  0  0  0  0  0  0  0
   45.5210   35.8750   42.7850 C   0  0  0  0  0  0  0  0  0  0  0  0
   45.2190   37.1500   43.2300 F   0  0  0  0  0  0  0  0  0  0  0  0
   44.5420   35.3960   41.9500 F   0  0  0  0  0  0  0  0  0  0  0  0
   46.7820   35.8020   42.2100 F   0  0  0  0  0  0  0  0  0  0  0  0
   45.3300   32.8820   47.5190 O   0  0  0  0  0  0  0  0  0  0  0  0
   45.5310   31.5000   47.6230 C   0  0  0  0  0  0  0  0  0  0  0  0
   46.8960   31.1240   48.0680 C   0  0  0  0  0  0  0  0  0  0  0  0
   47.7860   31.8650   48.7840 C   0  0  0  0  0  0  0  0  0  0  0  0
   49.0310   31.3780   49.1260 C   0  0  0  0  0  0  0  0  0  0  0  0
   49.3710   30.1020   48.7250 C   0  0  0  0  0  0  0  0  0  0  0  0
   48.4470   29.3720   47.9970 C   0  0  0  0  0  0  0  0  0  0  0  0
   47.2340   29.8790   47.6780 N   0  0  0  0  0  0  0  0  0  0  0  0
   44.0868   36.3145   44.9703 H   0  0  0  0  0  0  0  0  0  0  0  0
   46.9657   33.5222   43.3646 H   0  0  0  0  0  0  0  0  0  0  0  0
   44.8073   31.0980   48.3473 H   0  0  0  0  0  0  0  0  0  0  0  0
   45.3962   31.0804   46.6152 H   0  0  0  0  0  0  0  0  0  0  0  0
   47.5046   32.8807   49.0988 H   0  0  0  0  0  0  0  0  0  0  0  0
   49.7361   31.9926   49.7048 H   0  0  0  0  0  0  0  0  0  0  0  0
   50.3528   29.6751   48.9778 H   0  0  0  0  0  0  0  0  0  0  0  0
   48.7056   28.3542   47.6697 H   0  0  0  0  0  0  0  0  0  0  0  0
  1  6  2  0
  2  3  2  0
  2  1  1  0
  3  4  1  0
  4  5  2  0
  5 11  1  0
  6  5  1  0
  7  8  1  0
  7  2  1  0
  9  7  1  0
 10  7  1  0
 11 12  1  0
 12 13  1  0
 13 14  2  0
 14 15  1  0
 16 15  2  0
 17 16  1  0
 18 17  2  0
 18 13  1  0
  1 19  1  0
  3 20  1  0
 12 21  1  0
 12 22  1  0
 14 23  1  0
 15 24  1  0
 16 25  1  0
 17 26  1  0
M  ISO  8  19  14  20  14  21   8  22   8  23  14  24  14  25  14  26  14
M  END
>  <minimizedAffinity>  (1) 
-4.98264265

>  <minimizedRMSD>  (1) 
1.94008541

$$$$
