
     RDKit          3D

 23 23  0  0  0  0  0  0  0  0999 V2000
   44.7340   35.1820   45.4660 C   0  0  0  0  0  0  0  0  0  0  0  0
   45.4240   34.9830   44.2740 C   0  0  0  0  0  0  0  0  0  0  0  0
   46.1850   33.8070   44.1610 C   0  0  0  0  0  0  0  0  0  0  0  0
   46.2230   32.9310   45.1780 N   0  0  0  0  0  0  0  0  0  0  0  0
   45.5330   33.1710   46.3200 C   0  0  0  0  0  0  0  0  0  0  0  0
   44.7950   34.2760   46.4750 N   0  0  0  0  0  0  0  0  0  0  0  0
   45.3090   36.0240   43.2080 C   0  0  0  0  0  0  0  0  0  0  0  0
   45.0840   37.2070   43.8750 F   0  0  0  0  0  0  0  0  0  0  0  0
   44.1870   35.6800   42.4560 F   0  0  0  0  0  0  0  0  0  0  0  0
   46.4520   36.0130   42.4540 F   0  0  0  0  0  0  0  0  0  0  0  0
   45.5390   32.3030   47.3980 O   0  0  0  0  0  0  0  0  0  0  0  0
   46.3670   32.5040   48.5190 C   0  0  0  0  0  0  0  0  0  0  0  0
   47.7120   32.2600   48.2320 O   0  0  0  0  0  0  0  0  0  0  0  0
   48.9420   30.0230   47.5350 O   0  0  0  0  0  0  0  0  0  0  0  0
   47.9870   30.6190   48.5350 P   0  0  0  0  0  0  0  0  0  0  0  0
   46.4860   29.8270   48.5160 O   0  0  0  0  0  0  0  0  0  0  0  0
   48.6680   30.5050   50.0930 O   0  0  0  0  0  0  0  0  0  0  0  0
   44.1275   36.0909   45.5930 H   0  0  0  0  0  0  0  0  0  0  0  0
   46.7497   33.6040   43.2391 H   0  0  0  0  0  0  0  0  0  0  0  0
   46.2600   33.5456   48.8562 H   0  0  0  0  0  0  0  0  0  0  0  0
   46.0547   31.7960   49.3008 H   0  0  0  0  0  0  0  0  0  0  0  0
   46.1849   29.6681   49.4456 H   0  0  0  0  0  0  0  0  0  0  0  0
   47.9582   30.6238   50.7729 H   0  0  0  0  0  0  0  0  0  0  0  0
  1  6  2  0
  2  1  1  0
  3  2  2  0
  3  4  1  0
  4  5  2  0
  5  6  1  0
  5 11  1  0
  7  8  1  0
  7  2  1  0
  9  7  1  0
 10  7  1  0
 11 12  1  0
 13 12  1  0
 13 15  1  0
 14 15  2  0
 15 17  1  0
 16 15  1  0
  1 18  1  0
  3 19  1  0
 12 20  1  0
 12 21  1  0
 16 22  1  0
 17 23  1  0
M  ISO  6  18  14  19  14  20   8  21   8  22   3  23   3
M  END
>  <minimizedAffinity>  (1) 
-4.79346037

>  <minimizedRMSD>  (1) 
2.00271058

$$$$
