
     RDKit          3D

 39 42  0  0  0  0  0  0  0  0999 V2000
   46.9750   30.5660   47.4310 C   0  0  0  0  0  0  0  0  0  0  0  0
   47.4850   29.6600   46.5300 C   0  0  0  0  0  0  0  0  0  0  0  0
   48.7370   29.1640   46.6920 C   0  0  0  0  0  0  0  0  0  0  0  0
   49.4950   29.5500   47.7320 N   0  0  0  0  0  0  0  0  0  0  0  0
   49.0140   30.4310   48.6170 C   0  0  0  0  0  0  0  0  0  0  0  0
   47.7600   30.9410   48.4730 N   0  0  0  0  0  0  0  0  0  0  0  0
   50.3990   32.1200   49.7650 C   0  0  0  0  0  0  0  0  0  0  0  0
   49.8520   30.8540   49.7620 C   0  0  0  0  0  0  0  0  0  0  0  0
   50.0160   29.9130   50.7560 C   0  0  0  0  0  0  0  0  0  0  0  0
   50.8010   30.3190   51.8200 C   0  0  0  0  0  0  0  0  0  0  0  0
   51.1840   29.6910   52.9600 N   0  0  0  0  0  0  0  0  0  0  0  0
   51.9600   30.5130   53.6950 C   0  0  0  0  0  0  0  0  0  0  0  0
   52.1090   31.7320   53.0380 C   0  0  0  0  0  0  0  0  0  0  0  0
   51.3690   31.5780   51.8620 C   0  0  0  0  0  0  0  0  0  0  0  0
   51.1720   32.4940   50.8300 C   0  0  0  0  0  0  0  0  0  0  0  0
   45.6700   31.2310   47.4650 C   0  0  0  0  0  0  0  0  0  0  0  0
   45.8960   32.6210   47.4380 O   0  0  0  0  0  0  0  0  0  0  0  0
   44.9560   35.0090   44.9710 C   0  0  0  0  0  0  0  0  0  0  0  0
   45.8220   34.7550   43.9160 C   0  0  0  0  0  0  0  0  0  0  0  0
   46.7510   33.7240   44.0810 C   0  0  0  0  0  0  0  0  0  0  0  0
   46.7760   33.0310   45.2250 N   0  0  0  0  0  0  0  0  0  0  0  0
   45.9070   33.3160   46.2290 C   0  0  0  0  0  0  0  0  0  0  0  0
   45.0040   34.2930   46.1130 N   0  0  0  0  0  0  0  0  0  0  0  0
   45.7050   35.5970   42.6790 C   0  0  0  0  0  0  0  0  0  0  0  0
   45.2910   36.8310   43.1240 F   0  0  0  0  0  0  0  0  0  0  0  0
   44.7030   35.0030   41.9010 F   0  0  0  0  0  0  0  0  0  0  0  0
   46.8980   35.6120   42.0360 F   0  0  0  0  0  0  0  0  0  0  0  0
   46.8745   29.3363   45.6741 H   0  0  0  0  0  0  0  0  0  0  0  0
   49.1350   28.4398   45.9660 H   0  0  0  0  0  0  0  0  0  0  0  0
   50.2179   32.8131   48.9303 H   0  0  0  0  0  0  0  0  0  0  0  0
   49.5571   28.9145   50.7067 H   0  0  0  0  0  0  0  0  0  0  0  0
   50.9215   28.7307   53.2243 H   0  0  0  0  0  0  0  0  0  0  0  0
   52.4079   30.2591   54.6671 H   0  0  0  0  0  0  0  0  0  0  0  0
   52.6782   32.6134   53.3685 H   0  0  0  0  0  0  0  0  0  0  0  0
   51.6275   33.4944   50.8709 H   0  0  0  0  0  0  0  0  0  0  0  0
   45.0741   30.9314   46.5903 H   0  0  0  0  0  0  0  0  0  0  0  0
   45.1175   30.9484   48.3733 H   0  0  0  0  0  0  0  0  0  0  0  0
   44.2126   35.8138   44.8731 H   0  0  0  0  0  0  0  0  0  0  0  0
   47.4585   33.4834   43.2738 H   0  0  0  0  0  0  0  0  0  0  0  0
  1 16  1  0
  1  6  2  0
  2  3  2  0
  2  1  1  0
  3  4  1  0
  4  5  2  0
  5  8  1  0
  6  5  1  0
  7 15  2  0
  8  7  1  0
  8  9  2  0
  9 10  1  0
 10 14  2  0
 10 11  1  0
 11 12  1  0
 13 12  2  0
 14 13  1  0
 15 14  1  0
 17 16  1  0
 18 23  2  0
 19 20  2  0
 19 18  1  0
 20 21  1  0
 21 22  2  0
 22 17  1  0
 23 22  1  0
 24 25  1  0
 24 19  1  0
 26 24  1  0
 27 24  1  0
  2 28  1  0
  3 29  1  0
  7 30  1  0
  9 31  1  0
 11 32  1  0
 12 33  1  0
 13 34  1  0
 15 35  1  0
 16 36  1  0
 16 37  1  0
 18 38  1  0
 20 39  1  0
M  ISO  8  28  14  29  14  30  14  31  14  32   9  33  14  34  14  35  14
M  ISO  4  36   8  37   8  38  14  39  14
M  END
>  <minimizedAffinity>  (1) 
-6.73830366

>  <minimizedRMSD>  (1) 
1.0575124

$$$$
