
     RDKit          3D

 35 37  0  0  0  0  0  0  0  0999 V2000
   47.7940   30.6510   47.7520 C   0  0  0  0  0  0  0  0  0  0  0  0
   48.4310   29.6160   47.1050 C   0  0  0  0  0  0  0  0  0  0  0  0
   49.7050   29.2940   47.4320 C   0  0  0  0  0  0  0  0  0  0  0  0
   50.3610   29.9740   48.3860 N   0  0  0  0  0  0  0  0  0  0  0  0
   49.7540   30.9820   49.0220 C   0  0  0  0  0  0  0  0  0  0  0  0
   48.4720   31.3270   48.7110 N   0  0  0  0  0  0  0  0  0  0  0  0
   50.3390   29.4440   51.5950 Cl  0  0  0  0  0  0  0  0  0  0  0  0
   50.7780   31.1010   51.2630 C   0  0  0  0  0  0  0  0  0  0  0  0
   50.4790   31.7310   50.0730 C   0  0  0  0  0  0  0  0  0  0  0  0
   50.8000   33.0310   49.7580 C   0  0  0  0  0  0  0  0  0  0  0  0
   51.4770   33.7160   50.7520 C   0  0  0  0  0  0  0  0  0  0  0  0
   51.8100   33.1530   51.9640 C   0  0  0  0  0  0  0  0  0  0  0  0
   51.4500   31.8260   52.2130 C   0  0  0  0  0  0  0  0  0  0  0  0
   46.4340   31.1790   47.5730 C   0  0  0  0  0  0  0  0  0  0  0  0
   46.5300   32.5770   47.4740 O   0  0  0  0  0  0  0  0  0  0  0  0
   44.9710   34.7850   45.1600 C   0  0  0  0  0  0  0  0  0  0  0  0
   45.6850   34.5940   43.9870 C   0  0  0  0  0  0  0  0  0  0  0  0
   46.7340   33.6700   44.0170 C   0  0  0  0  0  0  0  0  0  0  0  0
   47.0100   33.0120   45.1540 N   0  0  0  0  0  0  0  0  0  0  0  0
   46.2780   33.2350   46.2800 C   0  0  0  0  0  0  0  0  0  0  0  0
   45.2770   34.1080   46.2770 N   0  0  0  0  0  0  0  0  0  0  0  0
   45.2880   35.3830   42.7810 C   0  0  0  0  0  0  0  0  0  0  0  0
   45.3460   36.6970   43.1630 F   0  0  0  0  0  0  0  0  0  0  0  0
   43.9640   35.0200   42.5040 F   0  0  0  0  0  0  0  0  0  0  0  0
   46.1210   35.0680   41.7460 F   0  0  0  0  0  0  0  0  0  0  0  0
   47.9047   29.0503   46.3220 H   0  0  0  0  0  0  0  0  0  0  0  0
   50.2079   28.4664   46.9104 H   0  0  0  0  0  0  0  0  0  0  0  0
   50.5393   33.4897   48.7928 H   0  0  0  0  0  0  0  0  0  0  0  0
   51.7632   34.7615   50.5648 H   0  0  0  0  0  0  0  0  0  0  0  0
   52.3501   33.7380   52.7230 H   0  0  0  0  0  0  0  0  0  0  0  0
   51.7070   31.3607   53.1760 H   0  0  0  0  0  0  0  0  0  0  0  0
   45.9900   30.7677   46.6545 H   0  0  0  0  0  0  0  0  0  0  0  0
   45.7949   30.8951   48.4221 H   0  0  0  0  0  0  0  0  0  0  0  0
   44.1389   35.5043   45.1750 H   0  0  0  0  0  0  0  0  0  0  0  0
   47.3309   33.4830   43.1122 H   0  0  0  0  0  0  0  0  0  0  0  0
  1  6  2  0
  2  3  2  0
  2  1  1  0
  3  4  1  0
  4  5  2  0
  5  9  1  0
  6  5  1  0
  8  7  1  0
  8 13  2  0
  9  8  1  0
 10  9  2  0
 10 11  1  0
 11 12  2  0
 12 13  1  0
 14  1  1  0
 15 14  1  0
 16 21  2  0
 17 18  2  0
 17 16  1  0
 18 19  1  0
 19 20  2  0
 20 15  1  0
 21 20  1  0
 22 23  1  0
 22 17  1  0
 24 22  1  0
 25 22  1  0
  2 26  1  0
  3 27  1  0
 10 28  1  0
 11 29  1  0
 12 30  1  0
 13 31  1  0
 14 32  1  0
 14 33  1  0
 16 34  1  0
 18 35  1  0
M  ISO  8  26  14  27  14  28  14  29  14  30  14  31  14  32   8  33   8
M  ISO  2  34  14  35  14
M  END
>  <minimizedAffinity>  (1) 
-5.92424011

>  <minimizedRMSD>  (1) 
1.10163975

$$$$
