
     RDKit          3D

 38 40  0  0  0  0  0  0  0  0999 V2000
   45.3760   31.3230   47.7970 C   0  0  0  0  0  0  0  0  0  0  0  0
   46.5730   30.4730   47.8620 C   0  0  0  0  0  0  0  0  0  0  0  0
   46.8720   29.2970   47.2020 C   0  0  0  0  0  0  0  0  0  0  0  0
   48.0630   28.6890   47.4360 C   0  0  0  0  0  0  0  0  0  0  0  0
   48.9550   29.2100   48.2950 N   0  0  0  0  0  0  0  0  0  0  0  0
   48.6700   30.3510   48.9370 C   0  0  0  0  0  0  0  0  0  0  0  0
   47.4890   30.9880   48.7300 N   0  0  0  0  0  0  0  0  0  0  0  0
   49.6400   30.8820   49.8480 N   0  0  0  0  0  0  0  0  0  0  0  0
   50.0230   30.0520   50.9710 C   0  0  0  0  0  0  0  0  0  0  0  0
   51.5530   30.1330   51.0320 C   0  0  0  0  0  0  0  0  0  0  0  0
   51.8790   31.4570   51.2410 O   0  0  0  0  0  0  0  0  0  0  0  0
   51.6560   32.2610   50.1520 C   0  0  0  0  0  0  0  0  0  0  0  0
   50.2230   32.1960   49.6620 C   0  0  0  0  0  0  0  0  0  0  0  0
   45.8000   32.6610   47.6860 O   0  0  0  0  0  0  0  0  0  0  0  0
   44.9430   34.9510   45.1000 C   0  0  0  0  0  0  0  0  0  0  0  0
   45.8260   34.6290   44.0600 C   0  0  0  0  0  0  0  0  0  0  0  0
   46.7230   33.5890   44.2960 C   0  0  0  0  0  0  0  0  0  0  0  0
   46.7140   32.9490   45.4760 N   0  0  0  0  0  0  0  0  0  0  0  0
   45.8400   33.3010   46.4500 C   0  0  0  0  0  0  0  0  0  0  0  0
   44.9570   34.2910   46.2740 N   0  0  0  0  0  0  0  0  0  0  0  0
   45.7310   35.4150   42.8030 C   0  0  0  0  0  0  0  0  0  0  0  0
   45.2840   36.6560   43.1680 F   0  0  0  0  0  0  0  0  0  0  0  0
   44.7750   34.7640   42.0070 F   0  0  0  0  0  0  0  0  0  0  0  0
   46.9560   35.4130   42.1910 F   0  0  0  0  0  0  0  0  0  0  0  0
   44.7704   31.0491   46.9205 H   0  0  0  0  0  0  0  0  0  0  0  0
   44.7622   31.1896   48.7000 H   0  0  0  0  0  0  0  0  0  0  0  0
   46.1530   28.8580   46.4946 H   0  0  0  0  0  0  0  0  0  0  0  0
   48.3023   27.7518   46.9122 H   0  0  0  0  0  0  0  0  0  0  0  0
   49.5796   30.4351   51.9019 H   0  0  0  0  0  0  0  0  0  0  0  0
   49.6719   29.0162   50.8535 H   0  0  0  0  0  0  0  0  0  0  0  0
   51.9312   29.5156   51.8601 H   0  0  0  0  0  0  0  0  0  0  0  0
   52.0032   29.7604   50.1001 H   0  0  0  0  0  0  0  0  0  0  0  0
   51.8868   33.3004   50.4285 H   0  0  0  0  0  0  0  0  0  0  0  0
   52.3029   31.9043   49.3370 H   0  0  0  0  0  0  0  0  0  0  0  0
   50.2034   32.4438   48.5905 H   0  0  0  0  0  0  0  0  0  0  0  0
   49.6322   32.9140   50.2497 H   0  0  0  0  0  0  0  0  0  0  0  0
   44.2184   35.7655   44.9532 H   0  0  0  0  0  0  0  0  0  0  0  0
   47.4387   33.2924   43.5151 H   0  0  0  0  0  0  0  0  0  0  0  0
  1  2  1  0
  2  7  2  0
  3  4  2  0
  3  2  1  0
  4  5  1  0
  5  6  2  0
  6  8  1  0
  7  6  1  0
  8  9  1  0
  9 10  1  0
 10 11  1  0
 12 11  1  0
 13  8  1  0
 13 12  1  0
 14  1  1  0
 15 20  2  0
 16 17  2  0
 16 15  1  0
 17 18  1  0
 18 19  2  0
 19 14  1  0
 20 19  1  0
 21 22  1  0
 21 16  1  0
 23 21  1  0
 24 21  1  0
  1 25  1  0
  1 26  1  0
  3 27  1  0
  4 28  1  0
  9 29  1  0
  9 30  1  0
 10 31  1  0
 10 32  1  0
 12 33  1  0
 12 34  1  0
 13 35  1  0
 13 36  1  0
 15 37  1  0
 17 38  1  0
M  ISO  8  25   8  26   8  27  14  28  14  29  13  30  13  31  13  32  13
M  ISO  6  33  13  34  13  35  13  36  13  37  14  38  14
M  END
>  <minimizedAffinity>  (1) 
-5.81615448

>  <minimizedRMSD>  (1) 
0.738579035

$$$$
