
     RDKit          3D

 27 28  0  0  0  0  0  0  0  0999 V2000
   45.3710   31.3270   47.7750 C   0  0  0  0  0  0  0  0  0  0  0  0
   46.6310   30.5890   47.9560 C   0  0  0  0  0  0  0  0  0  0  0  0
   47.0950   29.4430   47.3330 C   0  0  0  0  0  0  0  0  0  0  0  0
   48.3180   28.9630   47.6980 C   0  0  0  0  0  0  0  0  0  0  0  0
   49.0700   29.5590   48.6260 N   0  0  0  0  0  0  0  0  0  0  0  0
   48.6160   30.6660   49.2260 C   0  0  0  0  0  0  0  0  0  0  0  0
   47.4050   31.1910   48.9050 N   0  0  0  0  0  0  0  0  0  0  0  0
   49.4740   31.2430   50.2060 N   0  0  0  0  0  0  0  0  0  0  0  0
   45.6650   32.6800   47.6740 O   0  0  0  0  0  0  0  0  0  0  0  0
   44.9200   35.0090   45.0850 C   0  0  0  0  0  0  0  0  0  0  0  0
   45.8170   34.6710   44.0640 C   0  0  0  0  0  0  0  0  0  0  0  0
   46.6910   33.6060   44.3010 C   0  0  0  0  0  0  0  0  0  0  0  0
   46.6320   32.9620   45.4880 N   0  0  0  0  0  0  0  0  0  0  0  0
   45.7440   33.3330   46.4390 C   0  0  0  0  0  0  0  0  0  0  0  0
   44.9050   34.3370   46.2400 N   0  0  0  0  0  0  0  0  0  0  0  0
   45.7760   35.4700   42.7950 C   0  0  0  0  0  0  0  0  0  0  0  0
   45.2680   36.7060   43.1720 F   0  0  0  0  0  0  0  0  0  0  0  0
   44.8890   34.8220   41.9520 F   0  0  0  0  0  0  0  0  0  0  0  0
   47.0490   35.5390   42.2900 F   0  0  0  0  0  0  0  0  0  0  0  0
   44.8698   30.9864   46.8570 H   0  0  0  0  0  0  0  0  0  0  0  0
   44.7029   31.1488   48.6305 H   0  0  0  0  0  0  0  0  0  0  0  0
   46.4939   28.9340   46.5651 H   0  0  0  0  0  0  0  0  0  0  0  0
   48.6981   28.0530   47.2108 H   0  0  0  0  0  0  0  0  0  0  0  0
   49.1849   32.0961   50.7055 H   0  0  0  0  0  0  0  0  0  0  0  0
   50.3835   30.8070   50.4151 H   0  0  0  0  0  0  0  0  0  0  0  0
   44.2165   35.8410   44.9338 H   0  0  0  0  0  0  0  0  0  0  0  0
   47.4156   33.2968   43.5333 H   0  0  0  0  0  0  0  0  0  0  0  0
  1  2  1  0
  2  7  2  0
  3  4  2  0
  3  2  1  0
  4  5  1  0
  5  6  2  0
  6  8  1  0
  7  6  1  0
  9  1  1  0
 10 15  2  0
 11 12  2  0
 11 10  1  0
 12 13  1  0
 13 14  2  0
 14  9  1  0
 15 14  1  0
 16 17  1  0
 16 11  1  0
 18 16  1  0
 19 16  1  0
  1 20  1  0
  1 21  1  0
  3 22  1  0
  4 23  1  0
  8 24  1  0
  8 25  1  0
 10 26  1  0
 12 27  1  0
M  ISO  6  20   8  21   8  22  14  23  14  26  14  27  14
M  END
>  <minimizedAffinity>  (1) 
-5.22234392

>  <minimizedRMSD>  (1) 
0.234139651

$$$$
