
     RDKit          3D

 27 28  0  0  0  0  0  0  0  0999 V2000
   45.3290   31.3640   47.7890 C   0  0  0  0  0  0  0  0  0  0  0  0
   46.5550   30.5620   47.9090 C   0  0  0  0  0  0  0  0  0  0  0  0
   46.8950   29.3810   47.2890 C   0  0  0  0  0  0  0  0  0  0  0  0
   48.0930   28.8030   47.5480 C   0  0  0  0  0  0  0  0  0  0  0  0
   48.9570   29.3690   48.4050 N   0  0  0  0  0  0  0  0  0  0  0  0
   48.6350   30.5180   49.0130 C   0  0  0  0  0  0  0  0  0  0  0  0
   47.4390   31.1180   48.7710 N   0  0  0  0  0  0  0  0  0  0  0  0
   49.5900   31.1390   49.9580 C   0  0  0  0  0  0  0  0  0  0  0  0
   50.0110   30.3900   50.8640 O   0  0  0  0  0  0  0  0  0  0  0  0
   45.7160   32.7140   47.6840 O   0  0  0  0  0  0  0  0  0  0  0  0
   44.9150   34.9980   45.0720 C   0  0  0  0  0  0  0  0  0  0  0  0
   45.7990   34.6640   44.0480 C   0  0  0  0  0  0  0  0  0  0  0  0
   46.6880   33.6160   44.2900 C   0  0  0  0  0  0  0  0  0  0  0  0
   46.6470   32.9880   45.4860 N   0  0  0  0  0  0  0  0  0  0  0  0
   45.7760   33.3460   46.4460 C   0  0  0  0  0  0  0  0  0  0  0  0
   44.9130   34.3420   46.2470 N   0  0  0  0  0  0  0  0  0  0  0  0
   45.7320   35.4450   42.7740 C   0  0  0  0  0  0  0  0  0  0  0  0
   45.2960   36.6930   43.1350 F   0  0  0  0  0  0  0  0  0  0  0  0
   44.7790   34.8090   41.9800 F   0  0  0  0  0  0  0  0  0  0  0  0
   46.9670   35.4430   42.1960 F   0  0  0  0  0  0  0  0  0  0  0  0
   44.7692   31.0627   46.8913 H   0  0  0  0  0  0  0  0  0  0  0  0
   44.6799   31.2136   48.6642 H   0  0  0  0  0  0  0  0  0  0  0  0
   46.1955   28.9073   46.5846 H   0  0  0  0  0  0  0  0  0  0  0  0
   48.3604   27.8592   47.0502 H   0  0  0  0  0  0  0  0  0  0  0  0
   49.9071   32.1885   49.8683 H   0  0  0  0  0  0  0  0  0  0  0  0
   44.2001   35.8193   44.9159 H   0  0  0  0  0  0  0  0  0  0  0  0
   47.4101   33.3062   43.5202 H   0  0  0  0  0  0  0  0  0  0  0  0
  1  2  1  0
  2  7  2  0
  3  4  2  0
  3  2  1  0
  4  5  1  0
  5  6  2  0
  6  8  1  0
  7  6  1  0
  8  9  2  0
 10  1  1  0
 11 16  2  0
 12 13  2  0
 12 11  1  0
 13 14  1  0
 14 15  2  0
 15 10  1  0
 16 15  1  0
 17 18  1  0
 17 12  1  0
 19 17  1  0
 20 17  1  0
  1 21  1  0
  1 22  1  0
  3 23  1  0
  4 24  1  0
  8 25  1  0
 11 26  1  0
 13 27  1  0
M  ISO  7  21   8  22   8  23  14  24  14  25   6  26  14  27  14
M  END
>  <minimizedAffinity>  (1) 
-5.00921392

>  <minimizedRMSD>  (1) 
0.440570712

$$$$
