
     RDKit          3D

 34 36  0  0  0  0  0  0  0  0999 V2000
   45.0330   34.8820   44.8160 C   0  0  0  0  0  0  0  0  0  0  0  0
   45.9770   34.5700   43.8310 C   0  0  0  0  0  0  0  0  0  0  0  0
   46.9110   33.5860   44.1590 C   0  0  0  0  0  0  0  0  0  0  0  0
   46.8940   32.9860   45.3470 N   0  0  0  0  0  0  0  0  0  0  0  0
   45.9600   33.3200   46.2730 C   0  0  0  0  0  0  0  0  0  0  0  0
   45.0390   34.2610   46.0080 N   0  0  0  0  0  0  0  0  0  0  0  0
   47.9110   33.2310   43.1570 C   0  0  0  0  0  0  0  0  0  0  0  0
   49.1280   33.6450   42.7330 N   0  0  0  0  0  0  0  0  0  0  0  0
   49.4810   32.8120   41.7130 C   0  0  0  0  0  0  0  0  0  0  0  0
   48.5070   31.8990   41.5070 N   0  0  0  0  0  0  0  0  0  0  0  0
   47.5510   32.1650   42.3970 N   0  0  0  0  0  0  0  0  0  0  0  0
   45.9430   35.2790   42.5190 C   0  0  0  0  0  0  0  0  0  0  0  0
   44.9820   36.2580   42.6960 F   0  0  0  0  0  0  0  0  0  0  0  0
   45.4720   34.3500   41.5920 F   0  0  0  0  0  0  0  0  0  0  0  0
   47.1640   35.7740   42.2300 F   0  0  0  0  0  0  0  0  0  0  0  0
   45.8930   32.7290   47.5270 O   0  0  0  0  0  0  0  0  0  0  0  0
   45.4380   31.4020   47.6790 C   0  0  0  0  0  0  0  0  0  0  0  0
   46.6120   30.5400   47.8240 C   0  0  0  0  0  0  0  0  0  0  0  0
   46.8470   29.2550   47.3420 C   0  0  0  0  0  0  0  0  0  0  0  0
   48.0480   28.6770   47.6320 C   0  0  0  0  0  0  0  0  0  0  0  0
   48.9870   29.2910   48.3490 N   0  0  0  0  0  0  0  0  0  0  0  0
   48.7510   30.5300   48.8080 C   0  0  0  0  0  0  0  0  0  0  0  0
   47.5680   31.1720   48.5580 N   0  0  0  0  0  0  0  0  0  0  0  0
   49.8550   31.1300   49.5940 C   0  0  0  0  0  0  0  0  0  0  0  0
   49.8340   32.5030   49.5160 F   0  0  0  0  0  0  0  0  0  0  0  0
   51.0990   30.6810   49.1190 F   0  0  0  0  0  0  0  0  0  0  0  0
   49.7830   30.7850   50.9290 F   0  0  0  0  0  0  0  0  0  0  0  0
   44.2722   35.6495   44.6109 H   0  0  0  0  0  0  0  0  0  0  0  0
   50.4195   32.8742   41.1426 H   0  0  0  0  0  0  0  0  0  0  0  0
   48.5037   31.1473   40.8028 H   0  0  0  0  0  0  0  0  0  0  0  0
   44.8038   31.3242   48.5744 H   0  0  0  0  0  0  0  0  0  0  0  0
   44.8434   31.0974   46.8051 H   0  0  0  0  0  0  0  0  0  0  0  0
   46.0894   28.7237   46.7472 H   0  0  0  0  0  0  0  0  0  0  0  0
   48.2490   27.6622   47.2582 H   0  0  0  0  0  0  0  0  0  0  0  0
  1  6  2  0
  2  3  2  0
  2  1  1  0
  3  4  1  0
  4  5  2  0
  5 16  1  0
  6  5  1  0
  7  3  1  0
  8  7  1  0
  9  8  2  0
 10  9  1  0
 10 11  1  0
 11  7  2  0
 12 13  1  0
 12  2  1  0
 14 12  1  0
 15 12  1  0
 16 17  1  0
 17 18  1  0
 18 23  2  0
 19 20  2  0
 19 18  1  0
 20 21  1  0
 21 22  2  0
 22 24  1  0
 23 22  1  0
 24 27  1  0
 25 24  1  0
 26 24  1  0
  1 28  1  0
  9 29  1  0
 10 30  1  0
 17 31  1  0
 17 32  1  0
 19 33  1  0
 20 34  1  0
M  ISO  7  28  14  29  14  30   9  31   8  32   8  33  14  34  14
M  END
>  <minimizedAffinity>  (1) 
-5.84445333

>  <minimizedRMSD>  (1) 
0.364729166

$$$$
