
     RDKit          3D

 35 37  0  0  0  0  0  0  0  0999 V2000
   45.1510   34.7420   44.7780 C   0  0  0  0  0  0  0  0  0  0  0  0
   46.0250   34.5410   43.6960 C   0  0  0  0  0  0  0  0  0  0  0  0
   47.0470   33.6130   43.8830 C   0  0  0  0  0  0  0  0  0  0  0  0
   47.1490   32.9670   45.0600 N   0  0  0  0  0  0  0  0  0  0  0  0
   46.2900   33.1910   46.0710 C   0  0  0  0  0  0  0  0  0  0  0  0
   45.3060   34.0690   45.9250 N   0  0  0  0  0  0  0  0  0  0  0  0
   48.0420   33.2640   42.8730 C   0  0  0  0  0  0  0  0  0  0  0  0
   49.2400   33.9940   42.8740 C   0  0  0  0  0  0  0  0  0  0  0  0
   50.0950   33.6200   41.9070 N   0  0  0  0  0  0  0  0  0  0  0  0
   49.4310   32.6370   41.2820 C   0  0  0  0  0  0  0  0  0  0  0  0
   48.2350   32.4280   41.8430 N   0  0  0  0  0  0  0  0  0  0  0  0
   45.8130   35.3080   42.4430 C   0  0  0  0  0  0  0  0  0  0  0  0
   44.7650   36.1710   42.7390 F   0  0  0  0  0  0  0  0  0  0  0  0
   45.3710   34.3950   41.4850 F   0  0  0  0  0  0  0  0  0  0  0  0
   46.9410   35.9590   42.1080 F   0  0  0  0  0  0  0  0  0  0  0  0
   46.3810   32.5350   47.2880 O   0  0  0  0  0  0  0  0  0  0  0  0
   46.0350   31.1690   47.4020 C   0  0  0  0  0  0  0  0  0  0  0  0
   47.2600   30.4310   47.7500 C   0  0  0  0  0  0  0  0  0  0  0  0
   47.6380   29.1410   47.4450 C   0  0  0  0  0  0  0  0  0  0  0  0
   48.8450   28.6940   47.8990 C   0  0  0  0  0  0  0  0  0  0  0  0
   49.6580   29.4650   48.6210 N   0  0  0  0  0  0  0  0  0  0  0  0
   49.2830   30.7180   48.9130 C   0  0  0  0  0  0  0  0  0  0  0  0
   48.0850   31.2210   48.4870 N   0  0  0  0  0  0  0  0  0  0  0  0
   50.2570   31.4980   49.7230 C   0  0  0  0  0  0  0  0  0  0  0  0
   50.1040   32.8540   49.5250 F   0  0  0  0  0  0  0  0  0  0  0  0
   51.5600   31.1330   49.3780 F   0  0  0  0  0  0  0  0  0  0  0  0
   50.1080   31.2560   51.0780 F   0  0  0  0  0  0  0  0  0  0  0  0
   44.3265   35.4637   44.6810 H   0  0  0  0  0  0  0  0  0  0  0  0
   49.4583   34.7946   43.5961 H   0  0  0  0  0  0  0  0  0  0  0  0
   51.0307   33.9961   41.6974 H   0  0  0  0  0  0  0  0  0  0  0  0
   49.8195   32.0753   40.4197 H   0  0  0  0  0  0  0  0  0  0  0  0
   45.2800   31.0372   48.1910 H   0  0  0  0  0  0  0  0  0  0  0  0
   45.6124   30.7958   46.4575 H   0  0  0  0  0  0  0  0  0  0  0  0
   46.9828   28.4877   46.8501 H   0  0  0  0  0  0  0  0  0  0  0  0
   49.1564   27.6660   47.6618 H   0  0  0  0  0  0  0  0  0  0  0  0
  1  6  2  0
  2  3  2  0
  2  1  1  0
  3  4  1  0
  4  5  2  0
  5 16  1  0
  6  5  1  0
  7  8  2  0
  7  3  1  0
  9  8  1  0
 10 11  2  0
 10  9  1  0
 11  7  1  0
 12 13  1  0
 12  2  1  0
 14 12  1  0
 15 12  1  0
 16 17  1  0
 17 18  1  0
 18 23  1  0
 19 18  2  0
 19 20  1  0
 20 21  2  0
 21 22  1  0
 22 24  1  0
 23 22  2  0
 24 27  1  0
 25 24  1  0
 26 24  1  0
  1 28  1  0
  8 29  1  0
  9 30  1  0
 10 31  1  0
 17 32  1  0
 17 33  1  0
 19 34  1  0
 20 35  1  0
M  ISO  8  28  14  29  14  30   9  31  14  32   8  33   8  34  14  35  14
M  END
>  <minimizedAffinity>  (1) 
-5.82715225

>  <minimizedRMSD>  (1) 
0.811922133

$$$$
