
     RDKit          3D

 29 30  0  0  0  0  0  0  0  0999 V2000
   45.3750   31.4140   47.7850 C   0  0  0  0  0  0  0  0  0  0  0  0
   46.5520   30.5340   47.8860 C   0  0  0  0  0  0  0  0  0  0  0  0
   46.7730   29.2540   47.3830 C   0  0  0  0  0  0  0  0  0  0  0  0
   47.9690   28.6770   47.6350 C   0  0  0  0  0  0  0  0  0  0  0  0
   48.9350   29.2820   48.3400 N   0  0  0  0  0  0  0  0  0  0  0  0
   48.7050   30.5080   48.8150 C   0  0  0  0  0  0  0  0  0  0  0  0
   47.5180   31.1620   48.6030 N   0  0  0  0  0  0  0  0  0  0  0  0
   49.8320   31.1070   49.5880 C   0  0  0  0  0  0  0  0  0  0  0  0
   49.8290   32.4770   49.5080 F   0  0  0  0  0  0  0  0  0  0  0  0
   51.0580   30.6280   49.0960 F   0  0  0  0  0  0  0  0  0  0  0  0
   49.7750   30.7790   50.9260 F   0  0  0  0  0  0  0  0  0  0  0  0
   45.8300   32.7230   47.6040 O   0  0  0  0  0  0  0  0  0  0  0  0
   45.0110   34.9120   44.9140 C   0  0  0  0  0  0  0  0  0  0  0  0
   45.9280   34.5470   43.9100 C   0  0  0  0  0  0  0  0  0  0  0  0
   46.8260   33.5190   44.2170 C   0  0  0  0  0  0  0  0  0  0  0  0
   46.7890   32.9340   45.4140 N   0  0  0  0  0  0  0  0  0  0  0  0
   45.8910   33.3120   46.3570 C   0  0  0  0  0  0  0  0  0  0  0  0
   45.0140   34.2910   46.1050 N   0  0  0  0  0  0  0  0  0  0  0  0
   45.8760   35.2720   42.6080 C   0  0  0  0  0  0  0  0  0  0  0  0
   45.0120   36.3130   42.8230 F   0  0  0  0  0  0  0  0  0  0  0  0
   45.3240   34.3760   41.6860 F   0  0  0  0  0  0  0  0  0  0  0  0
   47.1420   35.6520   42.2740 F   0  0  0  0  0  0  0  0  0  0  0  0
   47.9480   33.1110   42.9130 S   0  0  0  0  0  0  0  0  0  0  0  0
   44.7554   31.1121   46.9277 H   0  0  0  0  0  0  0  0  0  0  0  0
   44.7653   31.3437   48.6978 H   0  0  0  0  0  0  0  0  0  0  0  0
   46.0005   28.7306   46.8005 H   0  0  0  0  0  0  0  0  0  0  0  0
   48.1578   27.6662   47.2442 H   0  0  0  0  0  0  0  0  0  0  0  0
   44.2840   35.7146   44.7209 H   0  0  0  0  0  0  0  0  0  0  0  0
   49.1331   32.6800   43.4484 H   0  0  0  0  0  0  0  0  0  0  0  0
  1  2  1  0
  2  7  2  0
  3  4  2  0
  3  2  1  0
  4  5  1  0
  5  6  2  0
  6  8  1  0
  7  6  1  0
  8 11  1  0
  9  8  1  0
 10  8  1  0
 12  1  1  0
 13 18  2  0
 14 15  2  0
 14 13  1  0
 15 16  1  0
 16 17  2  0
 17 12  1  0
 18 17  1  0
 19 20  1  0
 19 14  1  0
 21 19  1  0
 22 19  1  0
 23 15  1  0
  1 24  1  0
  1 25  1  0
  3 26  1  0
  4 27  1  0
 13 28  1  0
 23 29  1  0
M  ISO  6  24   8  25   8  26  14  27  14  28  14  29  11
M  END
>  <minimizedAffinity>  (1) 
-5.51100779

>  <minimizedRMSD>  (1) 
0.279426783

$$$$
