
     RDKit          3D

 36 38  0  0  0  0  0  0  0  0999 V2000
   44.7750   36.3190   42.8020 Cl  0  0  0  0  0  0  0  0  0  0  0  0
   45.4160   35.1080   43.8610 C   0  0  0  0  0  0  0  0  0  0  0  0
   46.4590   34.3110   43.4580 C   0  0  0  0  0  0  0  0  0  0  0  0
   46.9000   33.3720   44.3780 C   0  0  0  0  0  0  0  0  0  0  0  0
   46.3660   33.1970   45.6370 C   0  0  0  0  0  0  0  0  0  0  0  0
   45.3250   34.0090   46.0100 C   0  0  0  0  0  0  0  0  0  0  0  0
   44.6880   33.7440   47.6160 Cl  0  0  0  0  0  0  0  0  0  0  0  0
   44.8540   34.9540   45.1320 C   0  0  0  0  0  0  0  0  0  0  0  0
   48.7290   35.4430   40.8250 C   0  0  0  0  0  0  0  0  0  0  0  0
   48.2760   34.7260   39.7030 C   0  0  0  0  0  0  0  0  0  0  0  0
   47.1810   33.8460   39.8510 C   0  0  0  0  0  0  0  0  0  0  0  0
   46.6300   33.7490   41.0860 N   0  0  0  0  0  0  0  0  0  0  0  0
   47.0740   34.4370   42.1420 C   0  0  0  0  0  0  0  0  0  0  0  0
   48.1300   35.2940   42.0260 N   0  0  0  0  0  0  0  0  0  0  0  0
   46.9310   32.1550   46.5250 C   0  0  0  0  0  0  0  0  0  0  0  0
   45.9900   30.9870   46.7080 C   0  0  0  0  0  0  0  0  0  0  0  0
   46.7610   29.8790   47.3390 C   0  0  0  0  0  0  0  0  0  0  0  0
   47.5990   30.2270   48.5070 C   0  0  0  0  0  0  0  0  0  0  0  0
   48.1960   31.6040   48.5190 C   0  0  0  0  0  0  0  0  0  0  0  0
   47.3090   32.6430   47.8850 C   0  0  0  0  0  0  0  0  0  0  0  0
   47.7354   32.7203   44.0823 H   0  0  0  0  0  0  0  0  0  0  0  0
   44.0184   35.6023   45.4345 H   0  0  0  0  0  0  0  0  0  0  0  0
   49.5801   36.1323   40.7231 H   0  0  0  0  0  0  0  0  0  0  0  0
   48.7665   34.8485   38.7261 H   0  0  0  0  0  0  0  0  0  0  0  0
   46.7924   33.2650   39.0016 H   0  0  0  0  0  0  0  0  0  0  0  0
   47.8450   31.8419   45.9992 H   0  0  0  0  0  0  0  0  0  0  0  0
   45.1526   31.2789   47.3589 H   0  0  0  0  0  0  0  0  0  0  0  0
   45.5792   30.6675   45.7389 H   0  0  0  0  0  0  0  0  0  0  0  0
   46.0393   29.1149   47.6637 H   0  0  0  0  0  0  0  0  0  0  0  0
   47.4700   29.5469   46.5663 H   0  0  0  0  0  0  0  0  0  0  0  0
   46.9752   30.1258   49.4074 H   0  0  0  0  0  0  0  0  0  0  0  0
   48.4565   29.5393   48.4641 H   0  0  0  0  0  0  0  0  0  0  0  0
   48.3828   31.8945   49.5634 H   0  0  0  0  0  0  0  0  0  0  0  0
   49.1231   31.5625   47.9284 H   0  0  0  0  0  0  0  0  0  0  0  0
   47.8505   33.5970   47.8028 H   0  0  0  0  0  0  0  0  0  0  0  0
   46.4100   32.8052   48.4977 H   0  0  0  0  0  0  0  0  0  0  0  0
  1  2  1  0
  2  8  2  0
  3  2  1  0
  3  4  2  0
  4  5  1  0
  5  6  2  0
  5 15  1  0
  6  7  1  0
  8  6  1  0
  9 14  2  0
 10 11  2  0
 10  9  1  0
 11 12  1  0
 12 13  2  0
 13  3  1  0
 14 13  1  0
 15 16  1  0
 15 20  1  0
 16 17  1  0
 17 18  1  0
 18 19  1  0
 20 19  1  0
  4 21  1  0
  8 22  1  0
  9 23  1  0
 10 24  1  0
 11 25  1  0
 15 26  1  0
 16 27  1  0
 16 28  1  0
 17 29  1  0
 17 30  1  0
 18 31  1  0
 18 32  1  0
 19 33  1  0
 19 34  1  0
 20 35  1  0
 20 36  1  0
M  ISO  8  21  14  22  14  23  14  24  14  25  14  26  13  27  13  28  13
M  ISO  8  29  13  30  13  31  13  32  13  33  13  34  13  35  13  36  13
M  END
>  <minimizedAffinity>  (1) 
-5.99781609

>  <minimizedRMSD>  (1) 
0.825543582

$$$$
