
     RDKit          3D

 29 31  0  0  0  0  0  0  0  0999 V2000
   44.7760   36.2500   42.8960 Cl  0  0  0  0  0  0  0  0  0  0  0  0
   45.4340   35.0410   43.9510 C   0  0  0  0  0  0  0  0  0  0  0  0
   46.4960   34.2640   43.5450 C   0  0  0  0  0  0  0  0  0  0  0  0
   46.9470   33.3350   44.4500 C   0  0  0  0  0  0  0  0  0  0  0  0
   46.4330   33.1220   45.7080 C   0  0  0  0  0  0  0  0  0  0  0  0
   45.3740   33.9120   46.0830 C   0  0  0  0  0  0  0  0  0  0  0  0
   44.6950   33.6590   47.6820 Cl  0  0  0  0  0  0  0  0  0  0  0  0
   44.8770   34.8580   45.2260 C   0  0  0  0  0  0  0  0  0  0  0  0
   48.7550   35.4090   40.9130 C   0  0  0  0  0  0  0  0  0  0  0  0
   48.2880   34.7270   39.7760 C   0  0  0  0  0  0  0  0  0  0  0  0
   47.1860   33.8640   39.9150 C   0  0  0  0  0  0  0  0  0  0  0  0
   46.6410   33.7460   41.1520 N   0  0  0  0  0  0  0  0  0  0  0  0
   47.1070   34.4140   42.2330 C   0  0  0  0  0  0  0  0  0  0  0  0
   48.1690   35.2510   42.1170 N   0  0  0  0  0  0  0  0  0  0  0  0
   46.9460   32.1220   46.6340 C   0  0  0  0  0  0  0  0  0  0  0  0
   47.5590   32.4180   47.8330 C   0  0  0  0  0  0  0  0  0  0  0  0
   48.0450   31.4690   48.7090 C   0  0  0  0  0  0  0  0  0  0  0  0
   47.9230   30.1440   48.3890 C   0  0  0  0  0  0  0  0  0  0  0  0
   47.3080   29.8740   47.1880 C   0  0  0  0  0  0  0  0  0  0  0  0
   46.8430   30.8150   46.3520 N   0  0  0  0  0  0  0  0  0  0  0  0
   47.7945   32.7052   44.1416 H   0  0  0  0  0  0  0  0  0  0  0  0
   44.0289   35.4833   45.5418 H   0  0  0  0  0  0  0  0  0  0  0  0
   49.6168   36.0860   40.8185 H   0  0  0  0  0  0  0  0  0  0  0  0
   48.7738   34.8652   38.7988 H   0  0  0  0  0  0  0  0  0  0  0  0
   46.7826   33.3076   39.0561 H   0  0  0  0  0  0  0  0  0  0  0  0
   47.6675   33.4774   48.1086 H   0  0  0  0  0  0  0  0  0  0  0  0
   48.5238   31.7733   49.6514 H   0  0  0  0  0  0  0  0  0  0  0  0
   48.2929   29.3460   49.0495 H   0  0  0  0  0  0  0  0  0  0  0  0
   47.1901   28.8204   46.8948 H   0  0  0  0  0  0  0  0  0  0  0  0
  1  2  1  0
  2  8  2  0
  3  2  1  0
  3  4  2  0
  4  5  1  0
  5  6  2  0
  5 15  1  0
  6  7  1  0
  8  6  1  0
  9 14  2  0
 10 11  2  0
 10  9  1  0
 11 12  1  0
 12 13  2  0
 13  3  1  0
 14 13  1  0
 15 16  2  0
 16 17  1  0
 18 17  2  0
 19 18  1  0
 20 15  1  0
 20 19  2  0
  4 21  1  0
  8 22  1  0
  9 23  1  0
 10 24  1  0
 11 25  1  0
 16 26  1  0
 17 27  1  0
 18 28  1  0
 19 29  1  0
M  ISO  8  21  14  22  14  23  14  24  14  25  14  26  14  27  14  28  14
M  ISO  1  29  14
M  END
>  <minimizedAffinity>  (1) 
-5.93130732

>  <minimizedRMSD>  (1) 
0.615263045

$$$$
