
     RDKit          3D

 21 22  0  0  0  0  0  0  0  0999 V2000
   44.9770   36.0300   43.3110 Cl  0  0  0  0  0  0  0  0  0  0  0  0
   45.6730   34.7000   44.1790 C   0  0  0  0  0  0  0  0  0  0  0  0
   46.6830   33.9440   43.6370 C   0  0  0  0  0  0  0  0  0  0  0  0
   47.1630   32.9140   44.4090 C   0  0  0  0  0  0  0  0  0  0  0  0
   46.7070   32.5920   45.6670 C   0  0  0  0  0  0  0  0  0  0  0  0
   45.6960   33.3600   46.1910 C   0  0  0  0  0  0  0  0  0  0  0  0
   45.1360   32.9290   47.7910 Cl  0  0  0  0  0  0  0  0  0  0  0  0
   45.1810   34.4010   45.4620 C   0  0  0  0  0  0  0  0  0  0  0  0
   48.7630   35.3970   41.0000 C   0  0  0  0  0  0  0  0  0  0  0  0
   48.2630   34.7940   39.8280 C   0  0  0  0  0  0  0  0  0  0  0  0
   47.1960   33.8760   39.9580 C   0  0  0  0  0  0  0  0  0  0  0  0
   46.7110   33.6260   41.2040 N   0  0  0  0  0  0  0  0  0  0  0  0
   47.2190   34.2270   42.3060 C   0  0  0  0  0  0  0  0  0  0  0  0
   48.2350   35.1030   42.1980 N   0  0  0  0  0  0  0  0  0  0  0  0
   47.3070   31.5160   46.3070 O   0  0  0  0  0  0  0  0  0  0  0  0
   47.9736   32.2998   43.9897 H   0  0  0  0  0  0  0  0  0  0  0  0
   44.3707   35.0114   45.8872 H   0  0  0  0  0  0  0  0  0  0  0  0
   49.5935   36.1150   40.9318 H   0  0  0  0  0  0  0  0  0  0  0  0
   48.6902   35.0306   38.8423 H   0  0  0  0  0  0  0  0  0  0  0  0
   46.7694   33.3772   39.0753 H   0  0  0  0  0  0  0  0  0  0  0  0
   47.0094   31.2503   47.2131 H   0  0  0  0  0  0  0  0  0  0  0  0
  1  2  1  0
  2  8  2  0
  3  2  1  0
  3  4  2  0
  4  5  1  0
  5  6  2  0
  5 15  1  0
  6  7  1  0
  8  6  1  0
  9 14  2  0
 10 11  2  0
 10  9  1  0
 11 12  1  0
 12 13  2  0
 13  3  1  0
 14 13  1  0
  4 16  1  0
  8 17  1  0
  9 18  1  0
 10 19  1  0
 11 20  1  0
 15 21  1  0
M  ISO  6  16  14  17  14  18  14  19  14  20  14  21   3
M  END
>  <minimizedAffinity>  (1) 
-4.91689539

>  <minimizedRMSD>  (1) 
0.0324877687

$$$$
