
     RDKit          3D

 23 24  0  0  0  0  0  0  0  0999 V2000
   45.0080   36.0700   43.4750 Cl  0  0  0  0  0  0  0  0  0  0  0  0
   45.6670   34.7040   44.3040 C   0  0  0  0  0  0  0  0  0  0  0  0
   46.6520   33.9460   43.7280 C   0  0  0  0  0  0  0  0  0  0  0  0
   47.1080   32.8810   44.4720 C   0  0  0  0  0  0  0  0  0  0  0  0
   46.6550   32.5330   45.7180 C   0  0  0  0  0  0  0  0  0  0  0  0
   45.6690   33.3040   46.2790 C   0  0  0  0  0  0  0  0  0  0  0  0
   45.1000   32.8510   47.8680 Cl  0  0  0  0  0  0  0  0  0  0  0  0
   45.1700   34.3910   45.5740 C   0  0  0  0  0  0  0  0  0  0  0  0
   48.7740   35.4060   41.1280 C   0  0  0  0  0  0  0  0  0  0  0  0
   48.2600   34.8620   39.9530 C   0  0  0  0  0  0  0  0  0  0  0  0
   47.1660   33.9790   40.0550 C   0  0  0  0  0  0  0  0  0  0  0  0
   46.6760   33.7100   41.2960 N   0  0  0  0  0  0  0  0  0  0  0  0
   47.1900   34.2460   42.4070 C   0  0  0  0  0  0  0  0  0  0  0  0
   48.2480   35.1030   42.3280 N   0  0  0  0  0  0  0  0  0  0  0  0
   47.2090   31.3640   46.4480 C   0  0  0  0  0  0  0  0  0  0  0  0
   47.9004   32.2587   44.0305 H   0  0  0  0  0  0  0  0  0  0  0  0
   44.3773   35.0114   46.0176 H   0  0  0  0  0  0  0  0  0  0  0  0
   49.6276   36.0976   41.0731 H   0  0  0  0  0  0  0  0  0  0  0  0
   48.6950   35.1141   38.9746 H   0  0  0  0  0  0  0  0  0  0  0  0
   46.7218   33.5212   39.1588 H   0  0  0  0  0  0  0  0  0  0  0  0
   47.1275   31.5360   47.5314 H   0  0  0  0  0  0  0  0  0  0  0  0
   46.6433   30.4605   46.1766 H   0  0  0  0  0  0  0  0  0  0  0  0
   48.2665   31.2298   46.1766 H   0  0  0  0  0  0  0  0  0  0  0  0
  1  2  1  0
  2  8  2  0
  3  2  1  0
  3  4  2  0
  4  5  1  0
  5  6  2  0
  5 15  1  0
  6  7  1  0
  8  6  1  0
  9 14  2  0
 10 11  2  0
 10  9  1  0
 11 12  1  0
 12 13  2  0
 13  3  1  0
 14 13  1  0
  4 16  1  0
  8 17  1  0
  9 18  1  0
 10 19  1  0
 11 20  1  0
 15 21  1  0
 15 22  1  0
 15 23  1  0
M  ISO  8  16  14  17  14  18  14  19  14  20  14  21   8  22   8  23   8
M  END
>  <minimizedAffinity>  (1) 
-4.97816372

>  <minimizedRMSD>  (1) 
0.151437581

$$$$
