
     RDKit          3D

 35 38  0  0  0  0  0  0  0  0999 V2000
   44.7880   35.9810   43.3000 Cl  0  0  0  0  0  0  0  0  0  0  0  0
   45.5390   34.7330   44.2440 C   0  0  0  0  0  0  0  0  0  0  0  0
   46.6260   34.0440   43.7570 C   0  0  0  0  0  0  0  0  0  0  0  0
   47.1480   33.0790   44.5850 C   0  0  0  0  0  0  0  0  0  0  0  0
   46.6620   32.7660   45.8380 C   0  0  0  0  0  0  0  0  0  0  0  0
   45.5750   33.4730   46.2930 C   0  0  0  0  0  0  0  0  0  0  0  0
   44.9840   33.0490   47.8870 Cl  0  0  0  0  0  0  0  0  0  0  0  0
   45.0160   34.4470   45.5060 C   0  0  0  0  0  0  0  0  0  0  0  0
   47.3560   31.7040   46.5690 C   0  0  0  0  0  0  0  0  0  0  0  0
   47.4650   30.4140   46.0950 C   0  0  0  0  0  0  0  0  0  0  0  0
   48.1140   29.3970   46.7650 C   0  0  0  0  0  0  0  0  0  0  0  0
   48.6950   29.6690   47.9850 C   0  0  0  0  0  0  0  0  0  0  0  0
   49.3210   28.6690   48.6240 N   0  0  0  0  0  0  0  0  0  0  0  0
   49.9190   28.8410   49.8230 C   0  0  0  0  0  0  0  0  0  0  0  0
   49.8530   30.1170   50.3700 C   0  0  0  0  0  0  0  0  0  0  0  0
   49.2140   31.1350   49.7190 C   0  0  0  0  0  0  0  0  0  0  0  0
   48.6100   30.9390   48.4950 C   0  0  0  0  0  0  0  0  0  0  0  0
   47.9550   31.9400   47.8050 C   0  0  0  0  0  0  0  0  0  0  0  0
   48.7730   35.4490   41.1660 C   0  0  0  0  0  0  0  0  0  0  0  0
   48.2900   34.8770   39.9920 C   0  0  0  0  0  0  0  0  0  0  0  0
   47.1920   33.9790   40.0840 C   0  0  0  0  0  0  0  0  0  0  0  0
   46.6960   33.7490   41.3250 N   0  0  0  0  0  0  0  0  0  0  0  0
   47.1910   34.3220   42.4420 C   0  0  0  0  0  0  0  0  0  0  0  0
   48.2300   35.1730   42.3660 N   0  0  0  0  0  0  0  0  0  0  0  0
   48.0187   32.5137   44.2214 H   0  0  0  0  0  0  0  0  0  0  0  0
   44.1451   35.0095   45.8737 H   0  0  0  0  0  0  0  0  0  0  0  0
   47.0063   30.1810   45.1227 H   0  0  0  0  0  0  0  0  0  0  0  0
   48.1667   28.3868   46.3329 H   0  0  0  0  0  0  0  0  0  0  0  0
   50.4309   28.0153   50.3389 H   0  0  0  0  0  0  0  0  0  0  0  0
   50.3238   30.3113   51.3450 H   0  0  0  0  0  0  0  0  0  0  0  0
   49.1809   32.1324   50.1817 H   0  0  0  0  0  0  0  0  0  0  0  0
   47.9048   32.9484   48.2417 H   0  0  0  0  0  0  0  0  0  0  0  0
   49.6222   36.1460   41.1111 H   0  0  0  0  0  0  0  0  0  0  0  0
   48.7459   35.1137   39.0193 H   0  0  0  0  0  0  0  0  0  0  0  0
   46.7659   33.4948   39.1930 H   0  0  0  0  0  0  0  0  0  0  0  0
  1  2  1  0
  2  8  2  0
  3  2  1  0
  3  4  2  0
  4  5  1  0
  5  6  2  0
  5  9  1  0
  6  7  1  0
  8  6  1  0
  9 18  1  0
 10  9  2  0
 10 11  1  0
 11 12  2  0
 12 17  1  0
 12 13  1  0
 13 14  2  0
 14 15  1  0
 16 15  2  0
 17 16  1  0
 18 17  2  0
 19 24  2  0
 20 21  2  0
 20 19  1  0
 21 22  1  0
 22 23  2  0
 23  3  1  0
 24 23  1  0
  4 25  1  0
  8 26  1  0
 10 27  1  0
 11 28  1  0
 14 29  1  0
 15 30  1  0
 16 31  1  0
 18 32  1  0
 19 33  1  0
 20 34  1  0
 21 35  1  0
M  ISO  8  25  14  26  14  27  14  28  14  29  14  30  14  31  14  32  14
M  ISO  3  33  14  34  14  35  14
M  END
>  <minimizedAffinity>  (1) 
-6.56515884

>  <minimizedRMSD>  (1) 
0.746320486

$$$$
