
     RDKit          3D

 48 52  0  0  1  0  0  0  0  0999 V2000
   44.8850   36.0580   43.1570 Cl  0  0  0  0  0  0  0  0  0  0  0  0
   45.6140   34.8060   44.1100 C   0  0  0  0  0  0  0  0  0  0  0  0
   46.7300   34.1470   43.6620 C   0  0  0  0  0  0  0  0  0  0  0  0
   47.2340   33.1650   44.4990 C   0  0  0  0  0  0  0  0  0  0  0  0
   46.6870   32.8260   45.7200 C   0  0  0  0  0  0  0  0  0  0  0  0
   45.5780   33.5040   46.1310 C   0  0  0  0  0  0  0  0  0  0  0  0
   44.9170   33.0350   47.6940 Cl  0  0  0  0  0  0  0  0  0  0  0  0
   45.0410   34.4820   45.3430 C   0  0  0  0  0  0  0  0  0  0  0  0
   47.3650   31.7570   46.4620 C   0  0  0  0  0  0  0  0  0  0  0  0
   47.4960   30.4720   45.9720 C   0  0  0  0  0  0  0  0  0  0  0  0
   48.1300   29.4520   46.6540 C   0  0  0  0  0  0  0  0  0  0  0  0
   48.6680   29.7110   47.8940 C   0  0  0  0  0  0  0  0  0  0  0  0
   49.2820   28.7030   48.5430 N   0  0  0  0  0  0  0  0  0  0  0  0
   49.8390   28.8690   49.7670 C   0  0  0  0  0  0  0  0  0  0  0  0
   49.7460   30.1300   50.3190 C   0  0  0  0  0  0  0  0  0  0  0  0
   49.1190   31.1580   49.6560 C   0  0  0  0  0  0  0  0  0  0  0  0
   48.5590   30.9740   48.4170 C   0  0  0  0  0  0  0  0  0  0  0  0
   47.9230   31.9750   47.7180 C   0  0  0  0  0  0  0  0  0  0  0  0
   48.9060   35.6850   41.1800 C   0  0  0  0  0  0  0  0  0  0  0  0
   48.5560   35.0690   39.9910 C   0  0  0  0  0  0  0  0  0  0  0  0
   47.5400   34.0930   40.0430 C   0  0  0  0  0  0  0  0  0  0  0  0
   46.9890   33.8370   41.2450 N   0  0  0  0  0  0  0  0  0  0  0  0
   47.3540   34.4560   42.3860 C   0  0  0  0  0  0  0  0  0  0  0  0
   48.3210   35.3880   42.3520 N   0  0  0  0  0  0  0  0  0  0  0  0
   47.7060   34.1040   37.5460 C   0  0  2  0  0  0  0  0  0  0  0  0
   47.1450   33.4200   38.7900 C   0  0  1  0  0  0  0  0  0  0  0  0
   47.6050   32.1140   38.7030 O   0  0  0  0  0  0  0  0  0  0  0  0
   47.6680   31.7740   37.3700 C   0  0  0  0  0  0  0  0  0  0  0  0
   47.4160   33.0010   36.5410 C   0  0  2  0  0  0  0  0  0  0  0  0
   49.0880   34.2410   37.6650 O   0  0  0  0  0  0  0  0  0  0  0  0
   48.2110   33.0960   35.4090 O   0  0  0  0  0  0  0  0  0  0  0  0
   48.1299   32.6190   44.1685 H   0  0  0  0  0  0  0  0  0  0  0  0
   44.1452   35.0221   45.6835 H   0  0  0  0  0  0  0  0  0  0  0  0
   47.0712   30.2485   44.9823 H   0  0  0  0  0  0  0  0  0  0  0  0
   48.2039   28.4472   46.2125 H   0  0  0  0  0  0  0  0  0  0  0  0
   50.3389   28.0421   50.2927 H   0  0  0  0  0  0  0  0  0  0  0  0
   50.1830   30.3168   51.3110 H   0  0  0  0  0  0  0  0  0  0  0  0
   49.0650   32.1496   50.1290 H   0  0  0  0  0  0  0  0  0  0  0  0
   47.8538   32.9773   48.1658 H   0  0  0  0  0  0  0  0  0  0  0  0
   49.6964   36.4499   41.1645 H   0  0  0  0  0  0  0  0  0  0  0  0
   49.0505   35.3304   39.0438 H   0  0  0  0  0  0  0  0  0  0  0  0
   47.3035   35.1033   37.3237 H   0  0  0  0  0  0  0  0  0  0  0  0
   46.0463   33.4624   38.8228 H   0  0  0  0  0  0  0  0  0  0  0  0
   48.6650   31.3708   37.1388 H   0  0  0  0  0  0  0  0  0  0  0  0
   46.9091   31.0103   37.1445 H   0  0  0  0  0  0  0  0  0  0  0  0
   46.4041   33.0257   36.1104 H   0  0  0  0  0  0  0  0  0  0  0  0
   49.3359   34.2656   38.6231 H   0  0  0  0  0  0  0  0  0  0  0  0
   49.1569   33.2090   35.6786 H   0  0  0  0  0  0  0  0  0  0  0  0
  1  2  1  0
  2  8  2  0
  3  2  1  0
  3  4  2  0
  4  5  1  0
  5  6  2  0
  5  9  1  0
  6  7  1  0
  8  6  1  0
  9 18  1  0
 10  9  2  0
 10 11  1  0
 11 12  2  0
 12 17  1  0
 12 13  1  0
 13 14  2  0
 14 15  1  0
 16 15  2  0
 17 16  1  0
 18 17  2  0
 19 24  2  0
 20 21  2  0
 20 19  1  0
 21 22  1  0
 22 23  2  0
 23  3  1  0
 24 23  1  0
 25 30  1  0
 25 26  1  0
 26 21  1  0
 27 26  1  0
 28 27  1  0
 29 31  1  0
 29 28  1  0
 29 25  1  0
  4 32  1  0
  8 33  1  0
 10 34  1  0
 11 35  1  0
 14 36  1  0
 15 37  1  0
 16 38  1  0
 18 39  1  0
 19 40  1  0
 20 41  1  0
 25 42  1  6
 26 43  1  6
 28 44  1  0
 28 45  1  0
 29 46  1  6
 30 47  1  0
 31 48  1  0
M  ISO  8  32  14  33  14  34  14  35  14  36  14  37  14  38  14  39  14
M  ISO  8  40  14  41  14  42  13  43  13  44  13  45  13  46  13  47   3
M  ISO  1  48   3
M  END
>  <minimizedAffinity>  (1) 
-7.78825712

>  <minimizedRMSD>  (1) 
0.408839673

$$$$
