
     RDKit          3D

 36 38  0  0  0  0  0  0  0  0999 V2000
   44.9240   33.5280   41.0370 F   0  0  0  0  0  0  0  0  0  0  0  0
   46.1440   34.0270   40.8760 C   0  0  0  0  0  0  0  0  0  0  0  0
   46.7270   34.7230   41.9140 C   0  0  0  0  0  0  0  0  0  0  0  0
   48.0020   35.2770   41.8270 C   0  0  0  0  0  0  0  0  0  0  0  0
   48.7390   35.1380   40.6560 C   0  0  0  0  0  0  0  0  0  0  0  0
   48.1050   34.4280   39.6430 C   0  0  0  0  0  0  0  0  0  0  0  0
   46.8440   33.8700   39.7050 C   0  0  0  0  0  0  0  0  0  0  0  0
   46.3040   33.1650   38.5970 N   0  0  0  0  0  0  0  0  0  0  0  0
   46.5680   33.5340   37.2100 C   0  0  0  0  0  0  0  0  0  0  0  0
   46.0260   32.4720   36.3060 C   0  0  0  0  0  0  0  0  0  0  0  0
   44.6230   32.1890   36.5220 N   0  0  0  0  0  0  0  0  0  0  0  0
   44.2330   32.2380   37.9120 C   0  0  0  0  0  0  0  0  0  0  0  0
   45.4420   32.0140   38.8030 C   0  0  0  0  0  0  0  0  0  0  0  0
   45.4070   34.1140   45.2890 C   0  0  0  0  0  0  0  0  0  0  0  0
   44.6280   35.2840   45.5110 C   0  0  0  0  0  0  0  0  0  0  0  0
   44.5650   36.2700   44.4970 C   0  0  0  0  0  0  0  0  0  0  0  0
   45.2710   36.0240   43.3530 N   0  0  0  0  0  0  0  0  0  0  0  0
   45.9970   34.9050   43.1800 C   0  0  0  0  0  0  0  0  0  0  0  0
   46.0560   33.9740   44.1360 N   0  0  0  0  0  0  0  0  0  0  0  0
   45.4540   33.1520   46.3110 N   0  0  0  0  0  0  0  0  0  0  0  0
   48.4251   35.8234   42.6829 H   0  0  0  0  0  0  0  0  0  0  0  0
   49.7487   35.5587   40.5399 H   0  0  0  0  0  0  0  0  0  0  0  0
   48.6610   34.2985   38.7027 H   0  0  0  0  0  0  0  0  0  0  0  0
   46.0789   34.4933   36.9851 H   0  0  0  0  0  0  0  0  0  0  0  0
   47.6524   33.6334   37.0543 H   0  0  0  0  0  0  0  0  0  0  0  0
   46.5974   31.5472   36.4740 H   0  0  0  0  0  0  0  0  0  0  0  0
   46.1257   32.8434   35.2754 H   0  0  0  0  0  0  0  0  0  0  0  0
   44.0666   32.8829   36.0026 H   0  0  0  0  0  0  0  0  0  0  0  0
   43.7964   33.2233   38.1326 H   0  0  0  0  0  0  0  0  0  0  0  0
   43.4926   31.4479   38.1056 H   0  0  0  0  0  0  0  0  0  0  0  0
   45.9632   31.0888   38.5160 H   0  0  0  0  0  0  0  0  0  0  0  0
   45.1528   31.9086   39.8590 H   0  0  0  0  0  0  0  0  0  0  0  0
   44.0828   35.4203   46.4566 H   0  0  0  0  0  0  0  0  0  0  0  0
   43.9759   37.1902   44.6239 H   0  0  0  0  0  0  0  0  0  0  0  0
   46.0080   32.2929   46.1845 H   0  0  0  0  0  0  0  0  0  0  0  0
   44.9345   33.3055   47.1870 H   0  0  0  0  0  0  0  0  0  0  0  0
  2  1  1  0
  2  3  2  0
  3 18  1  0
  4  3  1  0
  5  4  2  0
  6  7  2  0
  6  5  1  0
  7  2  1  0
  8 13  1  0
  8  7  1  0
  9  8  1  0
 10 11  1  0
 10  9  1  0
 11 12  1  0
 12 13  1  0
 14 15  2  0
 14 20  1  0
 16 15  1  0
 17 16  2  0
 18 17  1  0
 18 19  2  0
 19 14  1  0
  4 21  1  0
  5 22  1  0
  6 23  1  0
  9 24  1  0
  9 25  1  0
 10 26  1  0
 10 27  1  0
 11 28  1  0
 12 29  1  0
 12 30  1  0
 13 31  1  0
 13 32  1  0
 15 33  1  0
 16 34  1  0
 20 35  1  0
 20 36  1  0
M  ISO  8  21  14  22  14  23  14  24  13  25  13  26  13  27  13  28   5
M  ISO  6  29  13  30  13  31  13  32  13  33  14  34  14
M  END
>  <minimizedAffinity>  (1) 
-6.0933919

>  <minimizedRMSD>  (1) 
0.203268111

$$$$
