
     RDKit          3D

 25 26  0  0  0  0  0  0  0  0999 V2000
   45.1030   33.3770   41.1350 F   0  0  0  0  0  0  0  0  0  0  0  0
   46.2840   33.9880   40.9790 C   0  0  0  0  0  0  0  0  0  0  0  0
   46.7940   34.7370   42.0120 C   0  0  0  0  0  0  0  0  0  0  0  0
   48.0080   35.3950   41.9180 C   0  0  0  0  0  0  0  0  0  0  0  0
   48.7600   35.3190   40.7560 C   0  0  0  0  0  0  0  0  0  0  0  0
   48.1980   34.5510   39.7480 C   0  0  0  0  0  0  0  0  0  0  0  0
   47.0000   33.8880   39.8110 C   0  0  0  0  0  0  0  0  0  0  0  0
   45.4670   34.0120   45.3640 C   0  0  0  0  0  0  0  0  0  0  0  0
   44.6460   35.1430   45.5960 C   0  0  0  0  0  0  0  0  0  0  0  0
   44.5580   36.1320   44.6070 C   0  0  0  0  0  0  0  0  0  0  0  0
   45.2780   35.9490   43.4640 N   0  0  0  0  0  0  0  0  0  0  0  0
   46.0470   34.8620   43.2780 C   0  0  0  0  0  0  0  0  0  0  0  0
   46.1360   33.9120   44.2180 N   0  0  0  0  0  0  0  0  0  0  0  0
   45.5480   33.0170   46.3690 N   0  0  0  0  0  0  0  0  0  0  0  0
   46.4880   33.0900   38.6650 C   0  0  0  0  0  0  0  0  0  0  0  0
   48.3786   35.9822   42.7711 H   0  0  0  0  0  0  0  0  0  0  0  0
   49.7281   35.8288   40.6425 H   0  0  0  0  0  0  0  0  0  0  0  0
   48.7665   34.4657   38.8102 H   0  0  0  0  0  0  0  0  0  0  0  0
   44.0864   35.2433   46.5377 H   0  0  0  0  0  0  0  0  0  0  0  0
   43.9303   37.0242   44.7480 H   0  0  0  0  0  0  0  0  0  0  0  0
   46.1381   32.1854   46.2240 H   0  0  0  0  0  0  0  0  0  0  0  0
   45.0168   33.1251   47.2448 H   0  0  0  0  0  0  0  0  0  0  0  0
   45.9303   32.2207   39.0436 H   0  0  0  0  0  0  0  0  0  0  0  0
   45.8216   33.7146   38.0519 H   0  0  0  0  0  0  0  0  0  0  0  0
   47.3335   32.7445   38.0519 H   0  0  0  0  0  0  0  0  0  0  0  0
  2  1  1  0
  2  3  2  0
  3 12  1  0
  4  3  1  0
  5  4  2  0
  6  7  2  0
  6  5  1  0
  7  2  1  0
  8  9  2  0
  8 14  1  0
 10  9  1  0
 11 10  2  0
 12 11  1  0
 12 13  2  0
 13  8  1  0
 15  7  1  0
  4 16  1  0
  5 17  1  0
  6 18  1  0
  9 19  1  0
 10 20  1  0
 14 21  1  0
 14 22  1  0
 15 23  1  0
 15 24  1  0
 15 25  1  0
M  ISO  8  16  14  17  14  18  14  19  14  20  14  23   8  24   8  25   8
M  END
>  <minimizedAffinity>  (1) 
-5.60160732

>  <minimizedRMSD>  (1) 
0.0323544666

$$$$
