
     RDKit          3D

 23 24  0  0  0  0  0  0  0  0999 V2000
   45.0630   33.3690   41.1350 F   0  0  0  0  0  0  0  0  0  0  0  0
   46.2510   33.9760   40.9740 C   0  0  0  0  0  0  0  0  0  0  0  0
   46.7800   34.7300   42.0000 C   0  0  0  0  0  0  0  0  0  0  0  0
   47.9910   35.3690   41.8840 C   0  0  0  0  0  0  0  0  0  0  0  0
   48.7340   35.2830   40.7230 C   0  0  0  0  0  0  0  0  0  0  0  0
   48.1610   34.5160   39.7210 C   0  0  0  0  0  0  0  0  0  0  0  0
   46.9600   33.8600   39.7870 C   0  0  0  0  0  0  0  0  0  0  0  0
   45.4600   34.0170   45.3640 C   0  0  0  0  0  0  0  0  0  0  0  0
   44.6480   35.1480   45.5930 C   0  0  0  0  0  0  0  0  0  0  0  0
   44.5590   36.1420   44.5980 C   0  0  0  0  0  0  0  0  0  0  0  0
   45.2810   35.9370   43.4550 N   0  0  0  0  0  0  0  0  0  0  0  0
   46.0360   34.8620   43.2670 C   0  0  0  0  0  0  0  0  0  0  0  0
   46.1270   33.9110   44.2090 N   0  0  0  0  0  0  0  0  0  0  0  0
   45.5500   33.0180   46.3620 N   0  0  0  0  0  0  0  0  0  0  0  0
   46.4580   33.1130   38.7420 O   0  0  0  0  0  0  0  0  0  0  0  0
   48.3748   35.9586   42.7296 H   0  0  0  0  0  0  0  0  0  0  0  0
   49.7056   35.7846   40.6029 H   0  0  0  0  0  0  0  0  0  0  0  0
   48.7254   34.4250   38.7812 H   0  0  0  0  0  0  0  0  0  0  0  0
   44.0916   35.2525   46.5361 H   0  0  0  0  0  0  0  0  0  0  0  0
   43.9384   37.0399   44.7343 H   0  0  0  0  0  0  0  0  0  0  0  0
   46.1392   32.1874   46.2076 H   0  0  0  0  0  0  0  0  0  0  0  0
   45.0264   33.1214   47.2429 H   0  0  0  0  0  0  0  0  0  0  0  0
   45.5848   32.6559   38.8350 H   0  0  0  0  0  0  0  0  0  0  0  0
  2  1  1  0
  2  3  2  0
  3 12  1  0
  4  3  1  0
  5  4  2  0
  6  7  2  0
  6  5  1  0
  7  2  1  0
  8  9  2  0
  8 14  1  0
 10  9  1  0
 11 10  2  0
 12 11  1  0
 12 13  2  0
 13  8  1  0
 15  7  1  0
  4 16  1  0
  5 17  1  0
  6 18  1  0
  9 19  1  0
 10 20  1  0
 14 21  1  0
 14 22  1  0
 15 23  1  0
M  ISO  6  16  14  17  14  18  14  19  14  20  14  23   3
M  END
>  <minimizedAffinity>  (1) 
-5.50991154

>  <minimizedRMSD>  (1) 
0.0093058208

$$$$
