
     RDKit          3D

 24 25  0  0  0  0  0  0  0  0999 V2000
   45.0860   33.3510   41.0970 F   0  0  0  0  0  0  0  0  0  0  0  0
   46.2730   33.9660   40.9320 C   0  0  0  0  0  0  0  0  0  0  0  0
   46.7940   34.7270   41.9590 C   0  0  0  0  0  0  0  0  0  0  0  0
   48.0050   35.3860   41.8570 C   0  0  0  0  0  0  0  0  0  0  0  0
   48.7420   35.2860   40.6780 C   0  0  0  0  0  0  0  0  0  0  0  0
   48.1750   34.5100   39.6770 C   0  0  0  0  0  0  0  0  0  0  0  0
   46.9770   33.8500   39.7570 C   0  0  0  0  0  0  0  0  0  0  0  0
   45.4730   34.0130   45.3240 C   0  0  0  0  0  0  0  0  0  0  0  0
   44.6620   35.1530   45.5470 C   0  0  0  0  0  0  0  0  0  0  0  0
   44.5720   36.1480   44.5610 C   0  0  0  0  0  0  0  0  0  0  0  0
   45.2920   35.9540   43.4060 N   0  0  0  0  0  0  0  0  0  0  0  0
   46.0540   34.8610   43.2200 C   0  0  0  0  0  0  0  0  0  0  0  0
   46.1380   33.9130   44.1670 N   0  0  0  0  0  0  0  0  0  0  0  0
   45.5530   33.0260   46.3230 N   0  0  0  0  0  0  0  0  0  0  0  0
   46.4830   33.0610   38.6330 C   0  0  0  0  0  0  0  0  0  0  0  0
   46.7160   33.4500   37.4560 O   0  0  0  0  0  0  0  0  0  0  0  0
   48.3837   35.9841   42.6989 H   0  0  0  0  0  0  0  0  0  0  0  0
   49.7112   35.7901   40.5493 H   0  0  0  0  0  0  0  0  0  0  0  0
   48.7371   34.4165   38.7361 H   0  0  0  0  0  0  0  0  0  0  0  0
   44.1048   35.2581   46.4896 H   0  0  0  0  0  0  0  0  0  0  0  0
   43.9518   37.0448   44.7063 H   0  0  0  0  0  0  0  0  0  0  0  0
   46.1382   32.1911   46.1764 H   0  0  0  0  0  0  0  0  0  0  0  0
   45.0264   33.1381   47.2011 H   0  0  0  0  0  0  0  0  0  0  0  0
   45.9135   32.1368   38.8104 H   0  0  0  0  0  0  0  0  0  0  0  0
  2  1  1  0
  2  3  2  0
  3 12  1  0
  4  3  1  0
  5  4  2  0
  6  7  2  0
  6  5  1  0
  7  2  1  0
  8  9  2  0
  8 14  1  0
 10  9  1  0
 11 10  2  0
 12 11  1  0
 12 13  2  0
 13  8  1  0
 15  7  1  0
 16 15  2  0
  4 17  1  0
  5 18  1  0
  6 19  1  0
  9 20  1  0
 10 21  1  0
 14 22  1  0
 14 23  1  0
 15 24  1  0
M  ISO  6  17  14  18  14  19  14  20  14  21  14  24   6
M  END
>  <minimizedAffinity>  (1) 
-5.50517416

>  <minimizedRMSD>  (1) 
0.299860746

$$$$
