
     RDKit          3D

 43 46  0  0  0  0  0  0  0  0999 V2000
   45.2370   33.3820   41.1670 F   0  0  0  0  0  0  0  0  0  0  0  0
   46.3990   34.0190   41.0390 C   0  0  0  0  0  0  0  0  0  0  0  0
   46.8630   34.7860   42.0810 C   0  0  0  0  0  0  0  0  0  0  0  0
   48.0710   35.4860   42.0330 C   0  0  0  0  0  0  0  0  0  0  0  0
   48.8560   35.4120   40.8810 C   0  0  0  0  0  0  0  0  0  0  0  0
   48.3550   34.6290   39.8580 C   0  0  0  0  0  0  0  0  0  0  0  0
   47.1810   33.9440   39.8910 C   0  0  0  0  0  0  0  0  0  0  0  0
   45.4740   34.0030   45.3900 C   0  0  0  0  0  0  0  0  0  0  0  0
   44.6250   35.1090   45.6160 C   0  0  0  0  0  0  0  0  0  0  0  0
   44.5320   36.1260   44.6260 C   0  0  0  0  0  0  0  0  0  0  0  0
   45.2880   35.9540   43.5020 N   0  0  0  0  0  0  0  0  0  0  0  0
   46.0790   34.8970   43.3220 C   0  0  0  0  0  0  0  0  0  0  0  0
   46.1680   33.9350   44.2570 N   0  0  0  0  0  0  0  0  0  0  0  0
   45.5540   33.0010   46.3860 N   0  0  0  0  0  0  0  0  0  0  0  0
   46.7800   33.2000   38.8160 O   0  0  0  0  0  0  0  0  0  0  0  0
   48.0280   34.7000   37.0170 O   0  0  0  0  0  0  0  0  0  0  0  0
   47.2200   33.4360   37.2080 P   0  0  2  0  0  0  0  0  0  0  0  0
   45.8110   33.4810   36.2600 O   0  0  0  0  0  0  0  0  0  0  0  0
   48.1300   32.1410   36.5880 O   0  0  0  0  0  0  0  0  0  0  0  0
   48.1140   31.7810   35.2330 C   0  0  0  0  0  0  0  0  0  0  0  0
   47.5130   30.6120   34.7880 C   0  0  0  0  0  0  0  0  0  0  0  0
   47.5490   30.3380   33.4270 C   0  0  0  0  0  0  0  0  0  0  0  0
   48.1690   31.2170   32.5620 C   0  0  0  0  0  0  0  0  0  0  0  0
   48.2330   31.0010   31.2300 N   0  0  0  0  0  0  0  0  0  0  0  0
   48.8530   31.8880   30.4040 C   0  0  0  0  0  0  0  0  0  0  0  0
   49.4520   33.0510   30.8370 C   0  0  0  0  0  0  0  0  0  0  0  0
   49.4070   33.3100   32.2120 C   0  0  0  0  0  0  0  0  0  0  0  0
   48.7670   32.3790   33.0040 C   0  0  0  0  0  0  0  0  0  0  0  0
   48.7480   32.6820   34.3690 C   0  0  0  0  0  0  0  0  0  0  0  0
   48.3997   36.0883   42.8927 H   0  0  0  0  0  0  0  0  0  0  0  0
   49.8146   35.9442   40.7928 H   0  0  0  0  0  0  0  0  0  0  0  0
   48.9566   34.5538   38.9402 H   0  0  0  0  0  0  0  0  0  0  0  0
   44.0428   35.1829   46.5464 H   0  0  0  0  0  0  0  0  0  0  0  0
   43.8847   37.0054   44.7589 H   0  0  0  0  0  0  0  0  0  0  0  0
   46.1654   32.1839   46.2466 H   0  0  0  0  0  0  0  0  0  0  0  0
   45.0008   33.0887   47.2504 H   0  0  0  0  0  0  0  0  0  0  0  0
   45.0167   33.5064   36.8504 H   0  0  0  0  0  0  0  0  0  0  0  0
   47.0229   29.9233   35.4919 H   0  0  0  0  0  0  0  0  0  0  0  0
   47.0834   29.4204   33.0383 H   0  0  0  0  0  0  0  0  0  0  0  0
   48.8772   31.6630   29.3275 H   0  0  0  0  0  0  0  0  0  0  0  0
   49.9420   33.7426   30.1359 H   0  0  0  0  0  0  0  0  0  0  0  0
   49.8614   34.2150   32.6416 H   0  0  0  0  0  0  0  0  0  0  0  0
   49.2169   33.6003   34.7523 H   0  0  0  0  0  0  0  0  0  0  0  0
  2  1  1  0
  2  3  2  0
  3 12  1  0
  4  3  1  0
  5  4  2  0
  6  7  2  0
  6  5  1  0
  7  2  1  0
  8  9  2  0
  8 14  1  0
 10  9  1  0
 11 10  2  0
 12 11  1  0
 12 13  2  0
 13  8  1  0
 15  7  1  0
 17 16  2  0
 17 15  1  0
 18 17  1  0
 19 17  1  0
 20 19  1  0
 21 20  2  0
 22 21  1  0
 23 28  1  0
 23 22  2  0
 24 23  1  0
 25 26  1  0
 25 24  2  0
 26 27  2  0
 27 28  1  0
 28 29  2  0
 29 20  1  0
  4 30  1  0
  5 31  1  0
  6 32  1  0
  9 33  1  0
 10 34  1  0
 14 35  1  0
 14 36  1  0
 18 37  1  0
 21 38  1  0
 22 39  1  0
 25 40  1  0
 26 41  1  0
 27 42  1  0
 29 43  1  0
M  ISO  8  30  14  31  14  32  14  33  14  34  14  37   3  38  14  39  14
M  ISO  4  40  14  41  14  42  14  43  14
M  END
>  <minimizedAffinity>  (1) 
-7.87897205

>  <minimizedRMSD>  (1) 
2.31562662

$$$$
