
     RDKit          3D

 40 42  0  0  1  0  0  0  0  0999 V2000
   45.1350   33.4130   41.2190 F   0  0  0  0  0  0  0  0  0  0  0  0
   46.3070   34.0070   41.0800 C   0  0  0  0  0  0  0  0  0  0  0  0
   46.7990   34.7840   42.1090 C   0  0  0  0  0  0  0  0  0  0  0  0
   48.0300   35.4490   42.0510 C   0  0  0  0  0  0  0  0  0  0  0  0
   48.8120   35.3290   40.9010 C   0  0  0  0  0  0  0  0  0  0  0  0
   48.2860   34.5420   39.8910 C   0  0  0  0  0  0  0  0  0  0  0  0
   47.0930   33.8930   39.9380 C   0  0  0  0  0  0  0  0  0  0  0  0
   45.4590   34.1550   45.4660 C   0  0  0  0  0  0  0  0  0  0  0  0
   44.5790   35.2380   45.6410 C   0  0  0  0  0  0  0  0  0  0  0  0
   44.4470   36.1920   44.5940 C   0  0  0  0  0  0  0  0  0  0  0  0
   45.2000   35.9830   43.4710 N   0  0  0  0  0  0  0  0  0  0  0  0
   46.0220   34.9420   43.3450 C   0  0  0  0  0  0  0  0  0  0  0  0
   46.1500   34.0390   44.3330 N   0  0  0  0  0  0  0  0  0  0  0  0
   45.5750   33.2180   46.5210 N   0  0  0  0  0  0  0  0  0  0  0  0
   46.6780   33.1430   38.8720 O   0  0  0  0  0  0  0  0  0  0  0  0
   47.8650   34.6410   37.0410 O   0  0  0  0  0  0  0  0  0  0  0  0
   46.9310   33.4910   37.2380 P   0  0  2  0  0  0  0  0  0  0  0  0
   45.3970   33.8410   36.5410 O   0  0  0  0  0  0  0  0  0  0  0  0
   47.4820   32.1530   36.3930 O   0  0  0  0  0  0  0  0  0  0  0  0
   49.4160   31.0980   35.6670 C   0  0  1  0  0  0  0  0  0  0  0  0
   48.5580   32.3510   35.5830 C   0  0  1  0  0  0  0  0  0  0  0  0
   48.2960   32.4000   34.1270 C   0  0  0  0  0  0  0  0  0  0  0  0
   48.1340   31.0990   33.7040 O   0  0  0  0  0  0  0  0  0  0  0  0
   48.8300   30.2730   34.5510 C   0  0  0  0  0  0  0  0  0  0  0  0
   50.7330   31.3840   35.3140 O   0  0  0  0  0  0  0  0  0  0  0  0
   48.3758   36.0573   42.8997 H   0  0  0  0  0  0  0  0  0  0  0  0
   49.7868   35.8293   40.8033 H   0  0  0  0  0  0  0  0  0  0  0  0
   48.8835   34.4329   38.9739 H   0  0  0  0  0  0  0  0  0  0  0  0
   44.0026   35.3456   46.5717 H   0  0  0  0  0  0  0  0  0  0  0  0
   43.7721   37.0560   44.6830 H   0  0  0  0  0  0  0  0  0  0  0  0
   46.2101   32.4126   46.4270 H   0  0  0  0  0  0  0  0  0  0  0  0
   45.0243   33.3417   47.3826 H   0  0  0  0  0  0  0  0  0  0  0  0
   44.7343   33.9922   37.2607 H   0  0  0  0  0  0  0  0  0  0  0  0
   49.4234   30.6393   36.6668 H   0  0  0  0  0  0  0  0  0  0  0  0
   48.9717   33.3112   35.9249 H   0  0  0  0  0  0  0  0  0  0  0  0
   47.3825   32.9791   33.9266 H   0  0  0  0  0  0  0  0  0  0  0  0
   49.1267   32.8859   33.5943 H   0  0  0  0  0  0  0  0  0  0  0  0
   48.1503   29.5161   34.9694 H   0  0  0  0  0  0  0  0  0  0  0  0
   49.6362   29.7678   33.9989 H   0  0  0  0  0  0  0  0  0  0  0  0
   51.2761   31.5019   36.1333 H   0  0  0  0  0  0  0  0  0  0  0  0
  2  1  1  0
  2  3  2  0
  3 12  1  0
  4  3  1  0
  5  4  2  0
  6  7  2  0
  6  5  1  0
  7  2  1  0
  8  9  2  0
  8 14  1  0
 10  9  1  0
 11 10  2  0
 12 11  1  0
 12 13  2  0
 13  8  1  0
 15  7  1  0
 17 16  2  0
 17 15  1  0
 18 17  1  0
 19 17  1  0
 20 25  1  0
 21 20  1  0
 21 19  1  0
 22 21  1  0
 23 22  1  0
 23 24  1  0
 24 20  1  0
  4 26  1  0
  5 27  1  0
  6 28  1  0
  9 29  1  0
 10 30  1  0
 14 31  1  0
 14 32  1  0
 18 33  1  0
 20 34  1  1
 21 35  1  1
 22 36  1  0
 22 37  1  0
 24 38  1  0
 24 39  1  0
 25 40  1  0
M  ISO  8  26  14  27  14  28  14  29  14  30  14  33   3  34  13  35  13
M  ISO  5  36  13  37  13  38  13  39  13  40   3
M  END
>  <minimizedAffinity>  (1) 
-6.62741661

>  <minimizedRMSD>  (1) 
1.86580384

$$$$
