
     RDKit          3D

 34 36  0  0  0  0  0  0  0  0999 V2000
   45.2510   33.4140   41.1400 F   0  0  0  0  0  0  0  0  0  0  0  0
   46.4090   34.0400   41.0220 C   0  0  0  0  0  0  0  0  0  0  0  0
   46.8830   34.8010   42.0790 C   0  0  0  0  0  0  0  0  0  0  0  0
   48.0900   35.4880   42.0390 C   0  0  0  0  0  0  0  0  0  0  0  0
   48.8790   35.4240   40.8890 C   0  0  0  0  0  0  0  0  0  0  0  0
   48.3760   34.6560   39.8530 C   0  0  0  0  0  0  0  0  0  0  0  0
   47.1980   33.9780   39.8750 C   0  0  0  0  0  0  0  0  0  0  0  0
   45.4900   33.9880   45.3760 C   0  0  0  0  0  0  0  0  0  0  0  0
   44.6320   35.0860   45.6060 C   0  0  0  0  0  0  0  0  0  0  0  0
   44.5360   36.1100   44.6180 C   0  0  0  0  0  0  0  0  0  0  0  0
   45.2970   35.9500   43.4960 N   0  0  0  0  0  0  0  0  0  0  0  0
   46.0970   34.8980   43.3140 C   0  0  0  0  0  0  0  0  0  0  0  0
   46.1900   33.9310   44.2440 N   0  0  0  0  0  0  0  0  0  0  0  0
   45.5690   32.9870   46.3690 N   0  0  0  0  0  0  0  0  0  0  0  0
   46.7980   33.2500   38.7900 O   0  0  0  0  0  0  0  0  0  0  0  0
   48.0860   34.7190   36.9950 O   0  0  0  0  0  0  0  0  0  0  0  0
   47.3280   33.4420   37.2050 P   0  0  2  0  0  0  0  0  0  0  0  0
   45.9840   33.3430   36.1670 O   0  0  0  0  0  0  0  0  0  0  0  0
   48.3370   32.1480   36.7100 O   0  0  0  0  0  0  0  0  0  0  0  0
   48.8100   32.1120   35.3800 C   0  0  0  0  0  0  0  0  0  0  0  0
   49.8440   31.2100   35.1700 C   0  0  0  0  0  0  0  0  0  0  0  0
   50.2320   31.4040   33.3480 S   0  0  0  0  0  0  0  0  0  0  0  0
   48.8670   32.7170   33.2260 C   0  0  0  0  0  0  0  0  0  0  0  0
   48.4810   32.7570   34.2770 N   0  0  0  0  0  0  0  0  0  0  0  0
   48.4213   36.0776   42.9065 H   0  0  0  0  0  0  0  0  0  0  0  0
   49.8412   35.9514   40.8110 H   0  0  0  0  0  0  0  0  0  0  0  0
   48.9796   34.5888   38.9359 H   0  0  0  0  0  0  0  0  0  0  0  0
   44.0458   35.1505   46.5345 H   0  0  0  0  0  0  0  0  0  0  0  0
   43.8821   36.9842   44.7531 H   0  0  0  0  0  0  0  0  0  0  0  0
   46.1853   32.1732   46.2320 H   0  0  0  0  0  0  0  0  0  0  0  0
   45.0103   33.0707   47.2302 H   0  0  0  0  0  0  0  0  0  0  0  0
   45.1552   33.2820   36.7051 H   0  0  0  0  0  0  0  0  0  0  0  0
   50.3219   30.5404   35.9002 H   0  0  0  0  0  0  0  0  0  0  0  0
   48.5387   33.2920   32.3476 H   0  0  0  0  0  0  0  0  0  0  0  0
  2  1  1  0
  2  3  2  0
  3 12  1  0
  4  3  1  0
  5  4  2  0
  6  7  2  0
  6  5  1  0
  7  2  1  0
  8  9  2  0
  8 14  1  0
 10  9  1  0
 11 10  2  0
 12 11  1  0
 12 13  2  0
 13  8  1  0
 15  7  1  0
 17 16  2  0
 17 15  1  0
 18 17  1  0
 19 17  1  0
 20 19  1  0
 21 20  2  0
 22 21  1  0
 23 22  1  0
 23 24  2  0
 24 20  1  0
  4 25  1  0
  5 26  1  0
  6 27  1  0
  9 28  1  0
 10 29  1  0
 14 30  1  0
 14 31  1  0
 18 32  1  0
 21 33  1  0
 23 34  1  0
M  ISO  8  25  14  26  14  27  14  28  14  29  14  32   3  33  14  34  14
M  END
>  <minimizedAffinity>  (1) 
-6.48524141

>  <minimizedRMSD>  (1) 
2.19927382

$$$$
