
     RDKit          3D

 34 35  0  0  0  0  0  0  0  0999 V2000
   45.1680   33.3820   41.2050 F   0  0  0  0  0  0  0  0  0  0  0  0
   46.3360   34.0030   41.0650 C   0  0  0  0  0  0  0  0  0  0  0  0
   46.8210   34.7760   42.1050 C   0  0  0  0  0  0  0  0  0  0  0  0
   48.0380   35.4580   42.0400 C   0  0  0  0  0  0  0  0  0  0  0  0
   48.8080   35.3640   40.8800 C   0  0  0  0  0  0  0  0  0  0  0  0
   48.2920   34.5860   39.8690 C   0  0  0  0  0  0  0  0  0  0  0  0
   47.1110   33.9140   39.9110 C   0  0  0  0  0  0  0  0  0  0  0  0
   45.4450   34.0250   45.4240 C   0  0  0  0  0  0  0  0  0  0  0  0
   44.6140   35.1340   45.6510 C   0  0  0  0  0  0  0  0  0  0  0  0
   44.5240   36.1520   44.6510 C   0  0  0  0  0  0  0  0  0  0  0  0
   45.2720   35.9670   43.5210 N   0  0  0  0  0  0  0  0  0  0  0  0
   46.0500   34.9000   43.3450 C   0  0  0  0  0  0  0  0  0  0  0  0
   46.1340   33.9420   44.2850 N   0  0  0  0  0  0  0  0  0  0  0  0
   45.5210   33.0290   46.4240 N   0  0  0  0  0  0  0  0  0  0  0  0
   46.6910   33.1690   38.8440 O   0  0  0  0  0  0  0  0  0  0  0  0
   47.9910   34.6040   37.0350 O   0  0  0  0  0  0  0  0  0  0  0  0
   47.1210   33.4080   37.2340 P   0  0  2  0  0  0  0  0  0  0  0  0
   45.6860   33.5300   36.3110 O   0  0  0  0  0  0  0  0  0  0  0  0
   47.9170   32.0430   36.5830 O   0  0  0  0  0  0  0  0  0  0  0  0
   48.7590   32.5960   35.6070 C   0  0  0  0  0  0  0  0  0  0  0  0
   48.3040   32.3220   34.2150 C   0  0  0  0  0  0  0  0  0  0  0  0
   48.3850   36.0613   42.8919 H   0  0  0  0  0  0  0  0  0  0  0  0
   49.7729   35.8825   40.7794 H   0  0  0  0  0  0  0  0  0  0  0  0
   48.8864   34.5005   38.9474 H   0  0  0  0  0  0  0  0  0  0  0  0
   44.0400   35.2184   46.5856 H   0  0  0  0  0  0  0  0  0  0  0  0
   43.8861   37.0383   44.7837 H   0  0  0  0  0  0  0  0  0  0  0  0
   46.1223   32.2044   46.2849 H   0  0  0  0  0  0  0  0  0  0  0  0
   44.9750   33.1278   47.2918 H   0  0  0  0  0  0  0  0  0  0  0  0
   44.9073   33.5962   36.9188 H   0  0  0  0  0  0  0  0  0  0  0  0
   48.7965   33.6854   35.7544 H   0  0  0  0  0  0  0  0  0  0  0  0
   49.7476   32.1284   35.7255 H   0  0  0  0  0  0  0  0  0  0  0  0
   47.3620   31.7547   34.2421 H   0  0  0  0  0  0  0  0  0  0  0  0
   48.1437   33.2739   33.6876 H   0  0  0  0  0  0  0  0  0  0  0  0
   49.0704   31.7351   33.6876 H   0  0  0  0  0  0  0  0  0  0  0  0
  2  1  1  0
  2  3  2  0
  3 12  1  0
  4  3  1  0
  5  4  2  0
  6  7  2  0
  6  5  1  0
  7  2  1  0
  8  9  2  0
  8 14  1  0
 10  9  1  0
 11 10  2  0
 12 11  1  0
 12 13  2  0
 13  8  1  0
 15  7  1  0
 17 16  2  0
 17 15  1  0
 18 17  1  0
 19 17  1  0
 20 19  1  0
 21 20  1  0
  4 22  1  0
  5 23  1  0
  6 24  1  0
  9 25  1  0
 10 26  1  0
 14 27  1  0
 14 28  1  0
 18 29  1  0
 20 30  1  0
 20 31  1  0
 21 32  1  0
 21 33  1  0
 21 34  1  0
M  ISO  8  22  14  23  14  24  14  25  14  26  14  29   3  30   8  31   8
M  ISO  3  32   8  33   8  34   8
M  END
>  <minimizedAffinity>  (1) 
-5.8992157

>  <minimizedRMSD>  (1) 
1.21163654

$$$$
