
     RDKit          3D

 38 40  0  0  0  0  0  0  0  0999 V2000
   45.5170   33.3590   41.2140 F   0  0  0  0  0  0  0  0  0  0  0  0
   46.6140   34.0790   41.1200 C   0  0  0  0  0  0  0  0  0  0  0  0
   46.9690   34.8840   42.1800 C   0  0  0  0  0  0  0  0  0  0  0  0
   48.1230   35.6960   42.1850 C   0  0  0  0  0  0  0  0  0  0  0  0
   48.9530   35.6850   41.0520 C   0  0  0  0  0  0  0  0  0  0  0  0
   48.5580   34.8680   40.0220 C   0  0  0  0  0  0  0  0  0  0  0  0
   47.4560   34.0880   40.0070 C   0  0  0  0  0  0  0  0  0  0  0  0
   45.5380   33.9250   45.4160 C   0  0  0  0  0  0  0  0  0  0  0  0
   44.6230   34.9800   45.6590 C   0  0  0  0  0  0  0  0  0  0  0  0
   44.5070   36.0300   44.6850 C   0  0  0  0  0  0  0  0  0  0  0  0
   45.3010   35.9350   43.5740 N   0  0  0  0  0  0  0  0  0  0  0  0
   46.1430   34.9310   43.3910 C   0  0  0  0  0  0  0  0  0  0  0  0
   46.2620   33.9340   44.3010 N   0  0  0  0  0  0  0  0  0  0  0  0
   45.6220   32.9240   46.3860 N   0  0  0  0  0  0  0  0  0  0  0  0
   47.1700   33.3170   38.9170 O   0  0  0  0  0  0  0  0  0  0  0  0
   47.9710   34.6750   36.7930 O   0  0  0  0  0  0  0  0  0  0  0  0
   47.9710   33.3010   37.4450 P   0  0  2  0  0  0  0  0  0  0  0  0
   47.1970   32.1970   36.3950 O   0  0  0  0  0  0  0  0  0  0  0  0
   45.9490   32.6280   36.0000 C   0  0  0  0  0  0  0  0  0  0  0  0
   44.9350   31.4760   35.8450 C   0  0  0  0  0  0  0  0  0  0  0  0
   45.3480   32.2820   34.6980 C   0  0  0  0  0  0  0  0  0  0  0  0
   49.5630   32.7630   37.5570 O   0  0  0  0  0  0  0  0  0  0  0  0
   49.6420   31.6200   38.3830 C   0  0  0  0  0  0  0  0  0  0  0  0
   48.4470   30.9300   38.1340 F   0  0  0  0  0  0  0  0  0  0  0  0
   50.6710   30.8040   37.9900 F   0  0  0  0  0  0  0  0  0  0  0  0
   49.8140   31.9120   39.7070 F   0  0  0  0  0  0  0  0  0  0  0  0
   48.3668   36.3227   43.0555 H   0  0  0  0  0  0  0  0  0  0  0  0
   49.8662   36.2954   40.9934 H   0  0  0  0  0  0  0  0  0  0  0  0
   49.1976   34.8469   39.1273 H   0  0  0  0  0  0  0  0  0  0  0  0
   44.0139   34.9946   46.5749 H   0  0  0  0  0  0  0  0  0  0  0  0
   43.8123   36.8712   44.8256 H   0  0  0  0  0  0  0  0  0  0  0  0
   46.2717   32.1352   46.2571 H   0  0  0  0  0  0  0  0  0  0  0  0
   45.0343   32.9745   47.2304 H   0  0  0  0  0  0  0  0  0  0  0  0
   46.0675   33.5910   36.5183 H   0  0  0  0  0  0  0  0  0  0  0  0
   45.2665   30.4310   35.9352 H   0  0  0  0  0  0  0  0  0  0  0  0
   43.9755   31.2067   36.3106 H   0  0  0  0  0  0  0  0  0  0  0  0
   45.9754   31.8284   33.9166 H   0  0  0  0  0  0  0  0  0  0  0  0
   44.7977   32.8593   33.9404 H   0  0  0  0  0  0  0  0  0  0  0  0
  2  1  1  0
  2  3  2  0
  3  4  1  0
  3 12  1  0
  5  4  2  0
  6  5  1  0
  7  6  2  0
  7  2  1  0
  8  9  2  0
  8 14  1  0
 10  9  1  0
 11 10  2  0
 12 11  1  0
 12 13  2  0
 13  8  1  0
 15  7  1  0
 17 16  2  0
 17 22  1  0
 17 15  1  0
 18 17  1  0
 19 18  1  0
 20 19  1  0
 21 20  1  0
 21 19  1  0
 22 23  1  0
 23 26  1  0
 24 23  1  0
 25 23  1  0
  4 27  1  0
  5 28  1  0
  6 29  1  0
  9 30  1  0
 10 31  1  0
 14 32  1  0
 14 33  1  0
 19 34  1  0
 20 35  1  0
 20 36  1  0
 21 37  1  0
 21 38  1  0
M  ISO  8  27  14  28  14  29  14  30  14  31  14  34  13  35  13  36  13
M  ISO  2  37  13  38  13
M  END
>  <minimizedAffinity>  (1) 
-5.49177599

>  <minimizedRMSD>  (1) 
1.53070426

$$$$
