
     RDKit          3D

 34 35  0  0  0  0  0  0  0  0999 V2000
   45.4840   33.4090   41.1760 F   0  0  0  0  0  0  0  0  0  0  0  0
   46.6000   34.1100   41.0870 C   0  0  0  0  0  0  0  0  0  0  0  0
   46.9730   34.8930   42.1680 C   0  0  0  0  0  0  0  0  0  0  0  0
   48.1380   35.6760   42.1830 C   0  0  0  0  0  0  0  0  0  0  0  0
   48.9690   35.6700   41.0520 C   0  0  0  0  0  0  0  0  0  0  0  0
   48.5560   34.8770   40.0010 C   0  0  0  0  0  0  0  0  0  0  0  0
   47.4380   34.1210   39.9770 C   0  0  0  0  0  0  0  0  0  0  0  0
   45.5290   33.9270   45.3990 C   0  0  0  0  0  0  0  0  0  0  0  0
   44.6170   34.9800   45.6420 C   0  0  0  0  0  0  0  0  0  0  0  0
   44.5080   36.0300   44.6760 C   0  0  0  0  0  0  0  0  0  0  0  0
   45.3040   35.9390   43.5680 N   0  0  0  0  0  0  0  0  0  0  0  0
   46.1430   34.9340   43.3800 C   0  0  0  0  0  0  0  0  0  0  0  0
   46.2580   33.9340   44.2870 N   0  0  0  0  0  0  0  0  0  0  0  0
   45.6130   32.9130   46.3660 N   0  0  0  0  0  0  0  0  0  0  0  0
   47.1330   33.3760   38.8770 O   0  0  0  0  0  0  0  0  0  0  0  0
   48.0210   34.7650   36.8060 O   0  0  0  0  0  0  0  0  0  0  0  0
   47.9290   33.3700   37.4030 P   0  0  0  0  0  0  0  0  0  0  0  0
   47.1100   32.3520   36.3140 O   0  0  0  0  0  0  0  0  0  0  0  0
   45.7420   32.5620   36.5010 C   0  0  0  0  0  0  0  0  0  0  0  0
   45.0420   32.2020   35.3480 F   0  0  0  0  0  0  0  0  0  0  0  0
   45.3120   31.7850   37.5750 F   0  0  0  0  0  0  0  0  0  0  0  0
   45.4190   33.8560   36.7850 F   0  0  0  0  0  0  0  0  0  0  0  0
   49.4930   32.7340   37.5030 O   0  0  0  0  0  0  0  0  0  0  0  0
   49.5010   31.5790   38.3190 C   0  0  0  0  0  0  0  0  0  0  0  0
   50.5480   30.8050   37.8060 F   0  0  0  0  0  0  0  0  0  0  0  0
   49.8370   31.9130   39.6140 F   0  0  0  0  0  0  0  0  0  0  0  0
   48.3130   30.9170   38.3490 F   0  0  0  0  0  0  0  0  0  0  0  0
   48.3946   36.2825   43.0641 H   0  0  0  0  0  0  0  0  0  0  0  0
   49.8947   36.2624   41.0061 H   0  0  0  0  0  0  0  0  0  0  0  0
   49.1934   34.8594   39.1046 H   0  0  0  0  0  0  0  0  0  0  0  0
   44.0038   34.9917   46.5551 H   0  0  0  0  0  0  0  0  0  0  0  0
   43.8151   36.8724   44.8184 H   0  0  0  0  0  0  0  0  0  0  0  0
   46.2635   32.1258   46.2316 H   0  0  0  0  0  0  0  0  0  0  0  0
   45.0241   32.9561   47.2100 H   0  0  0  0  0  0  0  0  0  0  0  0
  2  1  1  0
  2  3  2  0
  3  4  1  0
  3 12  1  0
  5  4  2  0
  6  5  1  0
  7  6  2  0
  7  2  1  0
  8  9  2  0
  8 14  1  0
 10  9  1  0
 11 10  2  0
 12 11  1  0
 12 13  2  0
 13  8  1  0
 15  7  1  0
 16 17  2  0
 17 23  1  0
 17 15  1  0
 18 19  1  0
 18 17  1  0
 19 22  1  0
 19 21  1  0
 20 19  1  0
 23 24  1  0
 24 27  1  0
 24 26  1  0
 25 24  1  0
  4 28  1  0
  5 29  1  0
  6 30  1  0
  9 31  1  0
 10 32  1  0
 14 33  1  0
 14 34  1  0
M  ISO  5  28  14  29  14  30  14  31  14  32  14
M  END
>  <minimizedAffinity>  (1) 
-5.60279703

>  <minimizedRMSD>  (1) 
1.65498972

$$$$
