
     RDKit          3D

 41 43  0  0  0  0  0  0  0  0999 V2000
   45.3150   32.8560   41.5650 F   0  0  0  0  0  0  0  0  0  0  0  0
   46.3790   33.5890   41.2690 C   0  0  0  0  0  0  0  0  0  0  0  0
   46.7590   34.5840   42.1510 C   0  0  0  0  0  0  0  0  0  0  0  0
   47.8690   35.4160   41.9370 C   0  0  0  0  0  0  0  0  0  0  0  0
   48.6320   35.2290   40.7720 C   0  0  0  0  0  0  0  0  0  0  0  0
   48.2130   34.2290   39.9300 C   0  0  0  0  0  0  0  0  0  0  0  0
   47.1480   33.4240   40.1240 C   0  0  0  0  0  0  0  0  0  0  0  0
   45.4540   34.0990   45.5460 C   0  0  0  0  0  0  0  0  0  0  0  0
   44.5980   35.2180   45.6940 C   0  0  0  0  0  0  0  0  0  0  0  0
   44.4780   36.1430   44.6060 C   0  0  0  0  0  0  0  0  0  0  0  0
   45.2090   35.8760   43.4830 N   0  0  0  0  0  0  0  0  0  0  0  0
   45.9970   34.8190   43.3850 C   0  0  0  0  0  0  0  0  0  0  0  0
   46.1200   33.9360   44.4070 N   0  0  0  0  0  0  0  0  0  0  0  0
   45.5470   33.2190   46.6290 N   0  0  0  0  0  0  0  0  0  0  0  0
   46.8290   32.4620   39.2100 O   0  0  0  0  0  0  0  0  0  0  0  0
   44.6370   33.3130   38.0030 O   0  0  0  0  0  0  0  0  0  0  0  0
   45.9870   32.6650   37.7770 P   0  0  2  0  0  0  0  0  0  0  0  0
   45.7800   31.1790   37.0000 O   0  0  0  0  0  0  0  0  0  0  0  0
   45.4620   31.9240   34.3100 F   0  0  0  0  0  0  0  0  0  0  0  0
   44.5410   31.1100   34.8830 C   0  0  0  0  0  0  0  0  0  0  0  0
   44.7440   30.7750   36.2080 C   0  0  0  0  0  0  0  0  0  0  0  0
   43.8320   29.9440   36.8460 C   0  0  0  0  0  0  0  0  0  0  0  0
   42.7310   29.4590   36.1600 C   0  0  0  0  0  0  0  0  0  0  0  0
   42.5100   29.7800   34.8400 C   0  0  0  0  0  0  0  0  0  0  0  0
   43.4330   30.6090   34.2300 C   0  0  0  0  0  0  0  0  0  0  0  0
   46.8320   33.6270   36.6580 O   0  0  0  0  0  0  0  0  0  0  0  0
   48.1180   33.0940   36.4260 C   0  0  0  0  0  0  0  0  0  0  0  0
   48.1850   32.9570   35.0280 F   0  0  0  0  0  0  0  0  0  0  0  0
   49.0960   33.9880   36.7980 F   0  0  0  0  0  0  0  0  0  0  0  0
   48.3490   31.9150   37.0760 F   0  0  0  0  0  0  0  0  0  0  0  0
   48.1355   36.1966   42.6647 H   0  0  0  0  0  0  0  0  0  0  0  0
   49.5135   35.8477   40.5478 H   0  0  0  0  0  0  0  0  0  0  0  0
   48.7994   34.0695   39.0131 H   0  0  0  0  0  0  0  0  0  0  0  0
   44.0359   35.3740   46.6266 H   0  0  0  0  0  0  0  0  0  0  0  0
   43.8272   37.0274   44.6720 H   0  0  0  0  0  0  0  0  0  0  0  0
   46.1566   32.3909   46.5688 H   0  0  0  0  0  0  0  0  0  0  0  0
   45.0059   33.3990   47.4868 H   0  0  0  0  0  0  0  0  0  0  0  0
   43.9849   29.6700   37.9003 H   0  0  0  0  0  0  0  0  0  0  0  0
   42.0180   28.8033   36.6812 H   0  0  0  0  0  0  0  0  0  0  0  0
   41.6367   29.3936   34.2940 H   0  0  0  0  0  0  0  0  0  0  0  0
   43.2772   30.8819   33.1758 H   0  0  0  0  0  0  0  0  0  0  0  0
  2  1  1  0
  2  3  2  0
  3 12  1  0
  4  3  1  0
  5  4  2  0
  6  7  2  0
  6  5  1  0
  7  2  1  0
  8  9  2  0
  8 14  1  0
 10  9  1  0
 11 10  2  0
 12 11  1  0
 12 13  2  0
 13  8  1  0
 15  7  1  0
 17 16  2  0
 17 15  1  0
 18 17  1  0
 19 20  1  0
 20 21  2  0
 21 22  1  0
 21 18  1  0
 23 22  2  0
 24 23  1  0
 25 24  2  0
 25 20  1  0
 26 17  1  0
 27 26  1  0
 27 29  1  0
 27 30  1  0
 28 27  1  0
  4 31  1  0
  5 32  1  0
  6 33  1  0
  9 34  1  0
 10 35  1  0
 14 36  1  0
 14 37  1  0
 22 38  1  0
 23 39  1  0
 24 40  1  0
 25 41  1  0
M  ISO  8  31  14  32  14  33  14  34  14  35  14  38  14  39  14  40  14
M  ISO  1  41  14
M  END
>  <minimizedAffinity>  (1) 
-5.93404865

>  <minimizedRMSD>  (1) 
2.72527623

$$$$
