
     RDKit          3D

 33 34  0  0  0  0  0  0  0  0999 V2000
   45.5050   33.4180   41.1920 F   0  0  0  0  0  0  0  0  0  0  0  0
   46.6180   34.1220   41.1060 C   0  0  0  0  0  0  0  0  0  0  0  0
   46.9810   34.9000   42.1860 C   0  0  0  0  0  0  0  0  0  0  0  0
   48.1500   35.6890   42.2040 C   0  0  0  0  0  0  0  0  0  0  0  0
   48.9750   35.6790   41.0740 C   0  0  0  0  0  0  0  0  0  0  0  0
   48.5680   34.8900   40.0280 C   0  0  0  0  0  0  0  0  0  0  0  0
   47.4530   34.1310   39.9970 C   0  0  0  0  0  0  0  0  0  0  0  0
   45.5410   33.9130   45.4090 C   0  0  0  0  0  0  0  0  0  0  0  0
   44.6150   34.9690   45.6540 C   0  0  0  0  0  0  0  0  0  0  0  0
   44.5010   36.0260   44.6830 C   0  0  0  0  0  0  0  0  0  0  0  0
   45.3030   35.9370   43.5770 N   0  0  0  0  0  0  0  0  0  0  0  0
   46.1460   34.9360   43.3950 C   0  0  0  0  0  0  0  0  0  0  0  0
   46.2670   33.9370   44.2960 N   0  0  0  0  0  0  0  0  0  0  0  0
   45.6230   32.9160   46.3740 N   0  0  0  0  0  0  0  0  0  0  0  0
   47.1540   33.3840   38.8910 O   0  0  0  0  0  0  0  0  0  0  0  0
   48.0630   34.8000   36.8480 O   0  0  0  0  0  0  0  0  0  0  0  0
   47.9520   33.4010   37.4210 P   0  0  2  0  0  0  0  0  0  0  0  0
   47.0860   32.4200   36.3050 O   0  0  0  0  0  0  0  0  0  0  0  0
   47.6960   32.1840   35.0830 C   0  0  0  0  0  0  0  0  0  0  0  0
   46.9510   32.1650   34.0470 O   0  0  0  0  0  0  0  0  0  0  0  0
   49.4940   32.7230   37.4890 O   0  0  0  0  0  0  0  0  0  0  0  0
   49.4960   31.5820   38.3260 C   0  0  0  0  0  0  0  0  0  0  0  0
   50.5480   30.7990   37.8240 F   0  0  0  0  0  0  0  0  0  0  0  0
   49.8300   31.9270   39.6110 F   0  0  0  0  0  0  0  0  0  0  0  0
   48.3120   30.9140   38.3540 F   0  0  0  0  0  0  0  0  0  0  0  0
   48.4066   36.2968   43.0842 H   0  0  0  0  0  0  0  0  0  0  0  0
   49.9003   36.2719   41.0268 H   0  0  0  0  0  0  0  0  0  0  0  0
   49.2086   34.8749   39.1339 H   0  0  0  0  0  0  0  0  0  0  0  0
   44.0002   34.9761   46.5662 H   0  0  0  0  0  0  0  0  0  0  0  0
   43.8031   36.8647   44.8231 H   0  0  0  0  0  0  0  0  0  0  0  0
   46.2757   32.1293   46.2475 H   0  0  0  0  0  0  0  0  0  0  0  0
   45.0311   32.9639   47.2156 H   0  0  0  0  0  0  0  0  0  0  0  0
   48.7811   32.0193   35.0090 H   0  0  0  0  0  0  0  0  0  0  0  0
  2  1  1  0
  2  3  2  0
  3  4  1  0
  3 12  1  0
  5  4  2  0
  6  5  1  0
  7  6  2  0
  7  2  1  0
  8  9  2  0
  8 14  1  0
 10  9  1  0
 11 10  2  0
 12 11  1  0
 12 13  2  0
 13  8  1  0
 15  7  1  0
 17 16  2  0
 17 21  1  0
 17 15  1  0
 18 17  1  0
 19 18  1  0
 20 19  2  0
 21 22  1  0
 22 25  1  0
 22 24  1  0
 23 22  1  0
  4 26  1  0
  5 27  1  0
  6 28  1  0
  9 29  1  0
 10 30  1  0
 14 31  1  0
 14 32  1  0
 19 33  1  0
M  ISO  6  26  14  27  14  28  14  29  14  30  14  33   6
M  END
>  <minimizedAffinity>  (1) 
-5.37985039

>  <minimizedRMSD>  (1) 
1.58683789

$$$$
