
     RDKit          3D

 31 32  0  0  1  0  0  0  0  0999 V2000
   45.0820   34.8200   44.3890 C   0  0  0  0  0  0  0  0  0  0  0  0
   45.1020   34.1170   43.1630 C   0  0  0  0  0  0  0  0  0  0  0  0
   45.4070   32.7470   43.1920 C   0  0  0  0  0  0  0  0  0  0  0  0
   45.6670   32.1640   44.3800 N   0  0  0  0  0  0  0  0  0  0  0  0
   45.6400   32.8700   45.5480 C   0  0  0  0  0  0  0  0  0  0  0  0
   45.3490   34.1850   45.5340 N   0  0  0  0  0  0  0  0  0  0  0  0
   45.9460   32.1110   46.8040 C   0  0  1  0  0  0  0  0  0  0  0  0
   45.2460   32.6980   48.0110 C   0  0  0  0  0  0  0  0  0  0  0  0
   45.7560   31.9260   49.2020 C   0  0  0  0  0  0  0  0  0  0  0  0
   45.2970   30.5190   49.1300 C   0  0  0  0  0  0  0  0  0  0  0  0
   45.1500   29.9110   47.7870 C   0  0  0  0  0  0  0  0  0  0  0  0
   45.7160   30.6390   46.6390 C   0  0  0  0  0  0  0  0  0  0  0  0
   44.7650   36.2400   44.3600 C   0  0  0  0  0  0  0  0  0  0  0  0
   45.3730   37.0090   43.4860 C   0  0  0  0  0  0  0  0  0  0  0  0
   45.0980   38.4630   43.4020 C   0  0  0  0  0  0  0  0  0  0  0  0
   44.8849   34.6285   42.2137 H   0  0  0  0  0  0  0  0  0  0  0  0
   45.4334   32.1595   42.2624 H   0  0  0  0  0  0  0  0  0  0  0  0
   47.0219   32.2264   47.0016 H   0  0  0  0  0  0  0  0  0  0  0  0
   45.4911   33.7654   48.1137 H   0  0  0  0  0  0  0  0  0  0  0  0
   44.1524   32.6224   47.9195 H   0  0  0  0  0  0  0  0  0  0  0  0
   46.8557   31.9503   49.2078 H   0  0  0  0  0  0  0  0  0  0  0  0
   45.3671   32.3854   50.1227 H   0  0  0  0  0  0  0  0  0  0  0  0
   45.0732   29.9459   50.0419 H   0  0  0  0  0  0  0  0  0  0  0  0
   44.6354   28.9482   47.6520 H   0  0  0  0  0  0  0  0  0  0  0  0
   45.0281   30.5051   45.7911 H   0  0  0  0  0  0  0  0  0  0  0  0
   46.7194   30.2103   46.4997 H   0  0  0  0  0  0  0  0  0  0  0  0
   44.0280   36.6625   45.0588 H   0  0  0  0  0  0  0  0  0  0  0  0
   46.1058   36.5621   42.7980 H   0  0  0  0  0  0  0  0  0  0  0  0
   45.0190   38.8804   44.4166 H   0  0  0  0  0  0  0  0  0  0  0  0
   45.9179   38.9607   42.8635 H   0  0  0  0  0  0  0  0  0  0  0  0
   44.1529   38.6269   42.8635 H   0  0  0  0  0  0  0  0  0  0  0  0
  1  6  2  0
  2  3  2  0
  2  1  1  0
  3  4  1  0
  4  5  2  0
  6  5  1  0
  7  5  1  0
  7  8  1  0
  8  9  1  0
 10  9  1  0
 11 10  2  0
 12  7  1  0
 12 11  1  0
 13  1  1  0
 14 13  2  0
 15 14  1  0
  2 16  1  0
  3 17  1  0
  7 18  1  1
  8 19  1  0
  8 20  1  0
  9 21  1  0
  9 22  1  0
 10 23  1  0
 11 24  1  0
 12 25  1  0
 12 26  1  0
 13 27  1  0
 14 28  1  0
 15 29  1  0
 15 30  1  0
 15 31  1  0
M  ISO  8  16  14  17  14  18  13  19  13  20  13  21  13  22  13  23  13
M  ISO  6  24  13  25  13  26  13  29   8  30   8  31   8
M  END
>  <minimizedAffinity>  (1) 
-4.23235798

>  <minimizedRMSD>  (1) 
2.27991033

$$$$
