
     RDKit          3D

 37 38  0  0  0  0  0  0  0  0999 V2000
   45.5180   33.3690   41.2110 F   0  0  0  0  0  0  0  0  0  0  0  0
   46.6200   34.0890   41.1170 C   0  0  0  0  0  0  0  0  0  0  0  0
   46.9740   34.8880   42.1870 C   0  0  0  0  0  0  0  0  0  0  0  0
   48.1310   35.6970   42.1930 C   0  0  0  0  0  0  0  0  0  0  0  0
   48.9590   35.6880   41.0590 C   0  0  0  0  0  0  0  0  0  0  0  0
   48.5650   34.8760   40.0210 C   0  0  0  0  0  0  0  0  0  0  0  0
   47.4610   34.1000   40.0060 C   0  0  0  0  0  0  0  0  0  0  0  0
   45.5370   33.9210   45.4130 C   0  0  0  0  0  0  0  0  0  0  0  0
   44.6160   34.9800   45.6520 C   0  0  0  0  0  0  0  0  0  0  0  0
   44.5050   36.0200   44.6870 C   0  0  0  0  0  0  0  0  0  0  0  0
   45.3020   35.9300   43.5800 N   0  0  0  0  0  0  0  0  0  0  0  0
   46.1460   34.9300   43.3940 C   0  0  0  0  0  0  0  0  0  0  0  0
   46.2650   33.9320   44.3000 N   0  0  0  0  0  0  0  0  0  0  0  0
   45.6260   32.9110   46.3820 N   0  0  0  0  0  0  0  0  0  0  0  0
   47.1710   33.3340   38.9130 O   0  0  0  0  0  0  0  0  0  0  0  0
   47.9970   34.6890   36.7990 O   0  0  0  0  0  0  0  0  0  0  0  0
   47.9820   33.3220   37.4410 P   0  0  2  0  0  0  0  0  0  0  0  0
   47.2050   32.2120   36.3940 O   0  0  0  0  0  0  0  0  0  0  0  0
   45.8950   32.6470   36.1930 C   0  0  0  0  0  0  0  0  0  0  0  0
   45.3800   32.2620   34.8400 C   0  0  0  0  0  0  0  0  0  0  0  0
   49.5710   32.7660   37.5700 O   0  0  0  0  0  0  0  0  0  0  0  0
   49.6350   31.6220   38.3940 C   0  0  0  0  0  0  0  0  0  0  0  0
   50.7190   30.8890   37.8910 F   0  0  0  0  0  0  0  0  0  0  0  0
   49.9430   31.9660   39.6840 F   0  0  0  0  0  0  0  0  0  0  0  0
   48.4800   30.8950   38.4070 F   0  0  0  0  0  0  0  0  0  0  0  0
   48.3780   36.3197   43.0655 H   0  0  0  0  0  0  0  0  0  0  0  0
   49.8732   36.2973   41.0037 H   0  0  0  0  0  0  0  0  0  0  0  0
   49.2047   34.8576   39.1263 H   0  0  0  0  0  0  0  0  0  0  0  0
   44.0022   34.9941   46.5647 H   0  0  0  0  0  0  0  0  0  0  0  0
   43.8082   36.8598   44.8258 H   0  0  0  0  0  0  0  0  0  0  0  0
   46.2795   32.1260   46.2492 H   0  0  0  0  0  0  0  0  0  0  0  0
   45.0379   32.9542   47.2265 H   0  0  0  0  0  0  0  0  0  0  0  0
   45.2489   32.1965   36.9609 H   0  0  0  0  0  0  0  0  0  0  0  0
   45.8860   33.7448   36.2615 H   0  0  0  0  0  0  0  0  0  0  0  0
   44.5037   31.6069   34.9540 H   0  0  0  0  0  0  0  0  0  0  0  0
   45.0913   33.1675   34.2862 H   0  0  0  0  0  0  0  0  0  0  0  0
   46.1668   31.7288   34.2862 H   0  0  0  0  0  0  0  0  0  0  0  0
  2  1  1  0
  2  3  2  0
  3  4  1  0
  3 12  1  0
  5  4  2  0
  6  5  1  0
  7  6  2  0
  7  2  1  0
  8  9  2  0
  8 14  1  0
 10  9  1  0
 11 10  2  0
 12 11  1  0
 12 13  2  0
 13  8  1  0
 15  7  1  0
 17 16  2  0
 17 21  1  0
 17 15  1  0
 18 17  1  0
 19 18  1  0
 20 19  1  0
 21 22  1  0
 22 25  1  0
 22 24  1  0
 23 22  1  0
  4 26  1  0
  5 27  1  0
  6 28  1  0
  9 29  1  0
 10 30  1  0
 14 31  1  0
 14 32  1  0
 19 33  1  0
 19 34  1  0
 20 35  1  0
 20 36  1  0
 20 37  1  0
M  ISO  8  26  14  27  14  28  14  29  14  30  14  33   8  34   8  35   8
M  ISO  2  36   8  37   8
M  END
>  <minimizedAffinity>  (1) 
-5.39118719

>  <minimizedRMSD>  (1) 
1.5917629

$$$$
