
     RDKit          3D

 25 26  0  0  0  0  0  0  0  0999 V2000
   45.0650   34.7600   44.4510 C   0  0  0  0  0  0  0  0  0  0  0  0
   44.9560   34.0330   43.2510 C   0  0  0  0  0  0  0  0  0  0  0  0
   45.2530   32.6580   43.2840 C   0  0  0  0  0  0  0  0  0  0  0  0
   45.6280   32.1150   44.4700 N   0  0  0  0  0  0  0  0  0  0  0  0
   45.7260   32.8510   45.6180 C   0  0  0  0  0  0  0  0  0  0  0  0
   45.4380   34.1710   45.5800 N   0  0  0  0  0  0  0  0  0  0  0  0
   46.1310   32.2440   46.8800 C   0  0  0  0  0  0  0  0  0  0  0  0
   45.2900   32.3680   47.9780 C   0  0  0  0  0  0  0  0  0  0  0  0
   45.6740   31.7910   49.1820 C   0  0  0  0  0  0  0  0  0  0  0  0
   46.8480   31.1470   49.1940 N   0  0  0  0  0  0  0  0  0  0  0  0
   47.6740   31.0120   48.1630 C   0  0  0  0  0  0  0  0  0  0  0  0
   47.3090   31.5730   46.9750 N   0  0  0  0  0  0  0  0  0  0  0  0
   44.7540   36.1820   44.4130 C   0  0  0  0  0  0  0  0  0  0  0  0
   45.3390   36.9510   43.5190 C   0  0  0  0  0  0  0  0  0  0  0  0
   45.0760   38.4040   43.4160 C   0  0  0  0  0  0  0  0  0  0  0  0
   44.6482   34.5244   42.3162 H   0  0  0  0  0  0  0  0  0  0  0  0
   45.1833   32.0415   42.3756 H   0  0  0  0  0  0  0  0  0  0  0  0
   44.3379   32.9127   47.8960 H   0  0  0  0  0  0  0  0  0  0  0  0
   45.0445   31.8598   50.0814 H   0  0  0  0  0  0  0  0  0  0  0  0
   48.6229   30.4648   48.2642 H   0  0  0  0  0  0  0  0  0  0  0  0
   44.0350   36.6108   45.1266 H   0  0  0  0  0  0  0  0  0  0  0  0
   46.0538   36.4943   42.8186 H   0  0  0  0  0  0  0  0  0  0  0  0
   44.9980   38.8349   44.4251 H   0  0  0  0  0  0  0  0  0  0  0  0
   45.9011   38.8884   42.8732 H   0  0  0  0  0  0  0  0  0  0  0  0
   44.1335   38.5685   42.8732 H   0  0  0  0  0  0  0  0  0  0  0  0
  1  6  2  0
  2  3  2  0
  2  1  1  0
  3  4  1  0
  4  5  2  0
  5  7  1  0
  6  5  1  0
  7 12  1  0
  7  8  2  0
  8  9  1  0
  9 10  2  0
 11 10  1  0
 12 11  2  0
 13  1  1  0
 14 13  2  0
 15 14  1  0
  2 16  1  0
  3 17  1  0
  8 18  1  0
  9 19  1  0
 11 20  1  0
 13 21  1  0
 14 22  1  0
 15 23  1  0
 15 24  1  0
 15 25  1  0
M  ISO  8  16  14  17  14  18  14  19  14  20  14  23   8  24   8  25   8
M  END
>  <minimizedAffinity>  (1) 
-3.99136424

>  <minimizedRMSD>  (1) 
2.53097606

$$$$
