
     RDKit          3D

 20 20  0  0  0  0  0  0  0  0999 V2000
   45.0570   34.7820   44.4740 C   0  0  0  0  0  0  0  0  0  0  0  0
   44.9680   33.9940   43.3110 C   0  0  0  0  0  0  0  0  0  0  0  0
   45.2900   32.6430   43.4160 C   0  0  0  0  0  0  0  0  0  0  0  0
   45.6680   32.1640   44.6220 N   0  0  0  0  0  0  0  0  0  0  0  0
   45.7450   32.9440   45.7220 C   0  0  0  0  0  0  0  0  0  0  0  0
   45.4420   34.2360   45.6420 N   0  0  0  0  0  0  0  0  0  0  0  0
   46.1730   32.3290   47.0120 C   0  0  0  0  0  0  0  0  0  0  0  0
   46.2840   30.9480   46.8710 F   0  0  0  0  0  0  0  0  0  0  0  0
   47.3650   32.8800   47.4290 F   0  0  0  0  0  0  0  0  0  0  0  0
   45.1860   32.6480   47.9340 F   0  0  0  0  0  0  0  0  0  0  0  0
   44.7250   36.2210   44.4020 C   0  0  0  0  0  0  0  0  0  0  0  0
   45.3680   36.9300   43.4770 C   0  0  0  0  0  0  0  0  0  0  0  0
   45.0690   38.3890   43.3650 C   0  0  0  0  0  0  0  0  0  0  0  0
   44.6546   34.4306   42.3512 H   0  0  0  0  0  0  0  0  0  0  0  0
   45.2379   31.9817   42.5385 H   0  0  0  0  0  0  0  0  0  0  0  0
   43.9870   36.6805   45.0760 H   0  0  0  0  0  0  0  0  0  0  0  0
   46.1020   36.4528   42.8110 H   0  0  0  0  0  0  0  0  0  0  0  0
   44.9800   38.8234   44.3717 H   0  0  0  0  0  0  0  0  0  0  0  0
   45.8833   38.8894   42.8204 H   0  0  0  0  0  0  0  0  0  0  0  0
   44.1235   38.5288   42.8204 H   0  0  0  0  0  0  0  0  0  0  0  0
  1  6  2  0
  2  3  2  0
  2  1  1  0
  3  4  1  0
  4  5  2  0
  5  7  1  0
  6  5  1  0
  7  9  1  0
  7 10  1  0
  8  7  1  0
 11  1  1  0
 12 11  2  0
 13 12  1  0
  2 14  1  0
  3 15  1  0
 11 16  1  0
 12 17  1  0
 13 18  1  0
 13 19  1  0
 13 20  1  0
M  ISO  5  14  14  15  14  18   8  19   8  20   8
M  END
>  <minimizedAffinity>  (1) 
-3.29443526

>  <minimizedRMSD>  (1) 
2.29477596

$$$$
