
     RDKit          3D

 23 23  0  0  0  0  0  0  0  0999 V2000
   42.9170   35.1140   41.2800 C   0  0  0  0  0  0  0  0  0  0  0  0
   43.7130   34.5540   40.2380 C   0  0  0  0  0  0  0  0  0  0  0  0
   44.9970   34.1020   40.5890 C   0  0  0  0  0  0  0  0  0  0  0  0
   45.4100   34.2170   41.8860 N   0  0  0  0  0  0  0  0  0  0  0  0
   44.6150   34.7600   42.8490 C   0  0  0  0  0  0  0  0  0  0  0  0
   43.3810   35.1960   42.5180 N   0  0  0  0  0  0  0  0  0  0  0  0
   41.5860   35.5820   40.9190 C   0  0  0  0  0  0  0  0  0  0  0  0
   40.7420   34.7220   40.3560 C   0  0  0  0  0  0  0  0  0  0  0  0
   39.3730   35.1140   39.9650 C   0  0  0  0  0  0  0  0  0  0  0  0
   45.0770   34.8540   44.1410 O   0  0  0  0  0  0  0  0  0  0  0  0
   45.7910   33.6720   46.3930 O   0  0  0  0  0  0  0  0  0  0  0  0
   45.8740   33.5550   44.8900 P   0  0  0  0  0  0  0  0  0  0  0  0
   45.2010   32.0590   44.4140 O   0  0  0  0  0  0  0  0  0  0  0  0
   47.4970   33.5860   44.4280 O   0  0  0  0  0  0  0  0  0  0  0  0
   43.3393   34.4790   39.2061 H   0  0  0  0  0  0  0  0  0  0  0  0
   45.6600   33.6618   39.8297 H   0  0  0  0  0  0  0  0  0  0  0  0
   41.2855   36.6232   41.1077 H   0  0  0  0  0  0  0  0  0  0  0  0
   41.0734   33.6886   40.1764 H   0  0  0  0  0  0  0  0  0  0  0  0
   38.7691   35.2869   40.8680 H   0  0  0  0  0  0  0  0  0  0  0  0
   39.4123   36.0370   39.3679 H   0  0  0  0  0  0  0  0  0  0  0  0
   38.9178   34.3101   39.3679 H   0  0  0  0  0  0  0  0  0  0  0  0
   44.9643   31.5328   45.2184 H   0  0  0  0  0  0  0  0  0  0  0  0
   48.0698   33.5969   45.2354 H   0  0  0  0  0  0  0  0  0  0  0  0
  1  6  2  0
  2  3  2  0
  2  1  1  0
  3  4  1  0
  4  5  2  0
  5 10  1  0
  6  5  1  0
  7  1  1  0
  8  7  2  0
  9  8  1  0
 10 12  1  0
 12 11  2  0
 13 12  1  0
 14 12  1  0
  2 15  1  0
  3 16  1  0
  7 17  1  0
  8 18  1  0
  9 19  1  0
  9 20  1  0
  9 21  1  0
 13 22  1  0
 14 23  1  0
M  ISO  7  15  14  16  14  19   8  20   8  21   8  22   3  23   3
M  END
>  <minimizedAffinity>  (1) 
-4.11585045

>  <minimizedRMSD>  (1) 
4.01720762

$$$$
