
     RDKit          3D

 35 37  0  0  0  0  0  0  0  0999 V2000
   45.7250   34.2060   41.6220 C   0  0  0  0  0  0  0  0  0  0  0  0
   46.9740   34.7190   41.2610 C   0  0  0  0  0  0  0  0  0  0  0  0
   47.9830   34.6790   42.2410 C   0  0  0  0  0  0  0  0  0  0  0  0
   47.7140   34.1620   43.4550 N   0  0  0  0  0  0  0  0  0  0  0  0
   46.4890   33.6740   43.7650 C   0  0  0  0  0  0  0  0  0  0  0  0
   45.4880   33.6950   42.8470 N   0  0  0  0  0  0  0  0  0  0  0  0
   44.6520   35.3000   45.5370 Cl  0  0  0  0  0  0  0  0  0  0  0  0
   45.4470   33.8200   45.9750 C   0  0  0  0  0  0  0  0  0  0  0  0
   46.2790   33.1310   45.0990 C   0  0  0  0  0  0  0  0  0  0  0  0
   46.9160   31.9570   45.4310 C   0  0  0  0  0  0  0  0  0  0  0  0
   46.7110   31.4560   46.6910 C   0  0  0  0  0  0  0  0  0  0  0  0
   45.9080   32.0610   47.6310 C   0  0  0  0  0  0  0  0  0  0  0  0
   45.2950   33.2470   47.2240 C   0  0  0  0  0  0  0  0  0  0  0  0
   44.6360   34.2300   40.6200 C   0  0  0  0  0  0  0  0  0  0  0  0
   43.6460   35.0860   40.8150 C   0  0  0  0  0  0  0  0  0  0  0  0
   42.5310   35.1430   39.8330 C   0  0  0  0  0  0  0  0  0  0  0  0
   41.5100   34.1570   40.3100 C   0  0  0  0  0  0  0  0  0  0  0  0
   40.6730   34.4500   41.3850 C   0  0  0  0  0  0  0  0  0  0  0  0
   39.7330   33.5080   41.8050 C   0  0  0  0  0  0  0  0  0  0  0  0
   39.6070   32.3030   41.1940 N   0  0  0  0  0  0  0  0  0  0  0  0
   40.4410   32.0660   40.1590 C   0  0  0  0  0  0  0  0  0  0  0  0
   41.3590   32.9500   39.7260 N   0  0  0  0  0  0  0  0  0  0  0  0
   47.1593   35.1339   40.2593 H   0  0  0  0  0  0  0  0  0  0  0  0
   48.9870   35.0683   42.0164 H   0  0  0  0  0  0  0  0  0  0  0  0
   47.5666   31.4389   44.7111 H   0  0  0  0  0  0  0  0  0  0  0  0
   47.2165   30.5184   46.9657 H   0  0  0  0  0  0  0  0  0  0  0  0
   45.7594   31.6382   48.6356 H   0  0  0  0  0  0  0  0  0  0  0  0
   44.6456   33.7617   47.9475 H   0  0  0  0  0  0  0  0  0  0  0  0
   44.6491   33.5617   39.7464 H   0  0  0  0  0  0  0  0  0  0  0  0
   43.6479   35.7479   41.6936 H   0  0  0  0  0  0  0  0  0  0  0  0
   42.8900   34.8667   38.8306 H   0  0  0  0  0  0  0  0  0  0  0  0
   42.1094   36.1564   39.7606 H   0  0  0  0  0  0  0  0  0  0  0  0
   40.7529   35.4188   41.8998 H   0  0  0  0  0  0  0  0  0  0  0  0
   39.0766   33.7488   42.6542 H   0  0  0  0  0  0  0  0  0  0  0  0
   40.3662   31.0981   39.6417 H   0  0  0  0  0  0  0  0  0  0  0  0
  1  6  1  0
  2  1  2  0
  2  3  1  0
  3  4  2  0
  4  5  1  0
  5  9  1  0
  6  5  2  0
  7  8  1  0
  8 13  2  0
  9 10  2  0
  9  8  1  0
 10 11  1  0
 11 12  2  0
 13 12  1  0
 14 15  2  0
 14  1  1  0
 16 17  1  0
 16 15  1  0
 17 18  2  0
 18 19  1  0
 20 19  2  0
 21 20  1  0
 22 21  2  0
 22 17  1  0
  2 23  1  0
  3 24  1  0
 10 25  1  0
 11 26  1  0
 12 27  1  0
 13 28  1  0
 14 29  1  0
 15 30  1  0
 16 31  1  0
 16 32  1  0
 18 33  1  0
 19 34  1  0
 21 35  1  0
M  ISO  8  23  14  24  14  25  14  26  14  27  14  28  14  31   8  32   8
M  ISO  3  33  14  34  14  35  14
M  END
>  <minimizedAffinity>  (1) 
-5.63744926

>  <minimizedRMSD>  (1) 
7.19015646

$$$$
