
     RDKit          3D

 56 59  0  0  1  0  0  0  0  0999 V2000
   47.4960   34.2550   42.3260 C   0  0  2  0  0  0  0  0  0  0  0  0
   48.8010   34.9500   42.5520 C   0  0  0  0  0  0  0  0  0  0  0  0
   49.0700   35.9880   41.5370 C   0  0  0  0  0  0  0  0  0  0  0  0
   49.0150   35.4650   40.1250 C   0  0  0  0  0  0  0  0  0  0  0  0
   47.8990   34.4910   39.8880 C   0  0  0  0  0  0  0  0  0  0  0  0
   46.8750   34.4740   40.9970 C   0  0  1  0  0  0  0  0  0  0  0  0
   46.5160   34.5090   43.4020 C   0  0  0  0  0  0  0  0  0  0  0  0
   45.7240   35.6180   43.1650 C   0  0  0  0  0  0  0  0  0  0  0  0
   44.7390   35.9830   44.0970 C   0  0  0  0  0  0  0  0  0  0  0  0
   44.6450   35.1600   45.2260 N   0  0  0  0  0  0  0  0  0  0  0  0
   45.4440   34.0890   45.4100 C   0  0  0  0  0  0  0  0  0  0  0  0
   46.3760   33.7760   44.4880 N   0  0  0  0  0  0  0  0  0  0  0  0
   45.9300   33.3330   40.7360 C   0  0  2  0  0  0  0  0  0  0  0  0
   45.6170   33.0030   39.2870 C   0  0  0  0  0  0  0  0  0  0  0  0
   44.5830   33.5810   40.1580 C   0  0  1  0  0  0  0  0  0  0  0  0
   43.5060   32.7900   40.8270 C   0  0  0  0  0  0  0  0  0  0  0  0
   42.4610   33.6250   41.5060 C   0  0  0  0  0  0  0  0  0  0  0  0
   40.1170   33.0810   41.2440 C   0  0  2  0  0  0  0  0  0  0  0  0
   41.2690   33.8270   40.6030 C   0  0  1  0  0  0  0  0  0  0  0  0
   40.9720   35.1700   40.4170 O   0  0  0  0  0  0  0  0  0  0  0  0
   39.6240   35.4420   40.3600 C   0  0  0  0  0  0  0  0  0  0  0  0
   38.8510   34.3760   39.6050 C   0  0  2  0  0  0  0  0  0  0  0  0
   38.9730   33.0440   40.2800 C   0  0  2  0  0  0  0  0  0  0  0  0
   39.7720   33.6890   42.4420 O   0  0  0  0  0  0  0  0  0  0  0  0
   39.3220   34.3330   38.2860 O   0  0  0  0  0  0  0  0  0  0  0  0
   37.8250   32.7060   40.9900 O   0  0  0  0  0  0  0  0  0  0  0  0
   47.7799   33.1925   42.3485 H   0  0  0  0  0  0  0  0  0  0  0  0
   48.7816   35.4235   43.5447 H   0  0  0  0  0  0  0  0  0  0  0  0
   49.5989   34.1962   42.4800 H   0  0  0  0  0  0  0  0  0  0  0  0
   48.3193   36.7849   41.6443 H   0  0  0  0  0  0  0  0  0  0  0  0
   50.0917   36.3573   41.7095 H   0  0  0  0  0  0  0  0  0  0  0  0
   48.8827   36.3180   39.4432 H   0  0  0  0  0  0  0  0  0  0  0  0
   49.9569   34.9265   39.9437 H   0  0  0  0  0  0  0  0  0  0  0  0
   47.3928   34.7617   38.9497 H   0  0  0  0  0  0  0  0  0  0  0  0
   48.3469   33.4873   39.8430 H   0  0  0  0  0  0  0  0  0  0  0  0
   46.3645   35.4483   41.0102 H   0  0  0  0  0  0  0  0  0  0  0  0
   45.8652   36.2118   42.2499 H   0  0  0  0  0  0  0  0  0  0  0  0
   44.0859   36.8558   43.9502 H   0  0  0  0  0  0  0  0  0  0  0  0
   45.3349   33.4706   46.3131 H   0  0  0  0  0  0  0  0  0  0  0  0
   46.2971   32.7960   41.6230 H   0  0  0  0  0  0  0  0  0  0  0  0
   45.5425   31.9540   38.9645 H   0  0  0  0  0  0  0  0  0  0  0  0
   46.0556   33.2695   38.3140 H   0  0  0  0  0  0  0  0  0  0  0  0
   43.8979   34.4208   39.9698 H   0  0  0  0  0  0  0  0  0  0  0  0
   43.0106   32.1692   40.0659 H   0  0  0  0  0  0  0  0  0  0  0  0
   43.9934   32.1936   41.6124 H   0  0  0  0  0  0  0  0  0  0  0  0
   42.1351   33.1175   42.4259 H   0  0  0  0  0  0  0  0  0  0  0  0
   42.8940   34.6076   41.7447 H   0  0  0  0  0  0  0  0  0  0  0  0
   40.4058   32.0454   41.4767 H   0  0  0  0  0  0  0  0  0  0  0  0
   41.4786   33.4395   39.5951 H   0  0  0  0  0  0  0  0  0  0  0  0
   39.2320   35.5028   41.3860 H   0  0  0  0  0  0  0  0  0  0  0  0
   39.4958   36.3934   39.8230 H   0  0  0  0  0  0  0  0  0  0  0  0
   37.7801   34.6272   39.5973 H   0  0  0  0  0  0  0  0  0  0  0  0
   39.1319   32.2931   39.4921 H   0  0  0  0  0  0  0  0  0  0  0  0
   40.0878   33.1325   43.1974 H   0  0  0  0  0  0  0  0  0  0  0  0
   40.3079   34.2430   38.2904 H   0  0  0  0  0  0  0  0  0  0  0  0
   38.0096   32.7604   41.9611 H   0  0  0  0  0  0  0  0  0  0  0  0
  1  2  1  0
  1  7  1  0
  3  2  1  0
  4  3  1  0
  5  4  1  0
  5  6  1  0
  6  1  1  0
  7 12  1  0
  8  7  2  0
  8  9  1  0
  9 10  2  0
 10 11  1  0
 12 11  2  0
 13  6  1  0
 14 15  1  0
 14 13  1  0
 15 13  1  0
 15 16  1  0
 16 17  1  0
 18 24  1  0
 19 18  1  0
 19 17  1  0
 20 19  1  0
 21 20  1  0
 22 25  1  0
 22 23  1  0
 22 21  1  0
 23 26  1  0
 23 18  1  0
  1 27  1  6
  2 28  1  0
  2 29  1  0
  3 30  1  0
  3 31  1  0
  4 32  1  0
  4 33  1  0
  5 34  1  0
  5 35  1  0
  6 36  1  1
  8 37  1  0
  9 38  1  0
 11 39  1  0
 13 40  1  1
 14 41  1  0
 14 42  1  0
 15 43  1  6
 16 44  1  0
 16 45  1  0
 17 46  1  0
 17 47  1  0
 18 48  1  1
 19 49  1  6
 21 50  1  0
 21 51  1  0
 22 52  1  6
 23 53  1  6
 24 54  1  0
 25 55  1  0
 26 56  1  0
M  ISO  8  27  13  28  13  29  13  30  13  31  13  32  13  33  13  34  13
M  ISO  8  35  13  36  13  37  14  38  14  39  14  40  13  41  13  42  13
M  ISO  8  43  13  44   8  45   8  46   8  47   8  48  13  49  13  50  13
M  ISO  6  51  13  52  13  53  13  54   3  55   3  56   3
M  END
>  <minimizedAffinity>  (1) 
-7.5509944

>  <minimizedRMSD>  (1) 
2.607095

$$$$
