
     RDKit          3D

 37 39  0  0  0  0  0  0  0  0999 V2000
   45.5710   33.8490   45.8950 C   0  0  0  0  0  0  0  0  0  0  0  0
   44.6470   34.9030   46.0270 C   0  0  0  0  0  0  0  0  0  0  0  0
   44.5690   35.5620   44.8440 C   0  0  0  0  0  0  0  0  0  0  0  0
   45.4050   34.9500   44.0120 N   0  0  0  0  0  0  0  0  0  0  0  0
   46.0070   33.9220   44.6390 N   0  0  0  0  0  0  0  0  0  0  0  0
   47.5060   31.4810   47.9100 C   0  0  0  0  0  0  0  0  0  0  0  0
   46.6210   31.1200   48.9260 C   0  0  0  0  0  0  0  0  0  0  0  0
   45.3360   31.7170   48.8990 C   0  0  0  0  0  0  0  0  0  0  0  0
   45.0480   32.5900   47.8990 N   0  0  0  0  0  0  0  0  0  0  0  0
   45.9410   32.9060   46.9370 C   0  0  0  0  0  0  0  0  0  0  0  0
   47.1650   32.3550   46.9420 N   0  0  0  0  0  0  0  0  0  0  0  0
   45.6440   35.3300   42.6310 C   0  0  0  0  0  0  0  0  0  0  0  0
   46.8620   34.6180   42.1370 C   0  0  0  0  0  0  0  0  0  0  0  0
   46.6040   33.4860   41.3030 N   0  0  0  0  0  0  0  0  0  0  0  0
   46.7580   33.6900   39.8980 C   0  0  0  0  0  0  0  0  0  0  0  0
   48.0550   34.3600   39.6130 C   0  0  0  0  0  0  0  0  0  0  0  0
   49.1330   33.5270   40.0620 N   0  0  0  0  0  0  0  0  0  0  0  0
   48.9760   32.8690   41.3050 C   0  0  0  0  0  0  0  0  0  0  0  0
   47.5730   32.4580   41.6670 C   0  0  0  0  0  0  0  0  0  0  0  0
   44.0823   35.1508   46.9379 H   0  0  0  0  0  0  0  0  0  0  0  0
   43.9369   36.4333   44.6175 H   0  0  0  0  0  0  0  0  0  0  0  0
   48.5132   31.0389   47.8983 H   0  0  0  0  0  0  0  0  0  0  0  0
   46.9072   30.4052   49.7116 H   0  0  0  0  0  0  0  0  0  0  0  0
   44.5888   31.4788   49.6703 H   0  0  0  0  0  0  0  0  0  0  0  0
   44.7768   35.0491   42.0153 H   0  0  0  0  0  0  0  0  0  0  0  0
   45.7952   36.4175   42.5644 H   0  0  0  0  0  0  0  0  0  0  0  0
   47.4664   35.3348   41.5618 H   0  0  0  0  0  0  0  0  0  0  0  0
   47.3751   34.2312   43.0298 H   0  0  0  0  0  0  0  0  0  0  0  0
   46.7316   32.7173   39.3850 H   0  0  0  0  0  0  0  0  0  0  0  0
   45.9383   34.3287   39.5371 H   0  0  0  0  0  0  0  0  0  0  0  0
   48.1496   34.5301   38.5304 H   0  0  0  0  0  0  0  0  0  0  0  0
   48.0929   35.3244   40.1407 H   0  0  0  0  0  0  0  0  0  0  0  0
   49.2817   32.8020   39.3457 H   0  0  0  0  0  0  0  0  0  0  0  0
   49.5971   31.9613   41.2851 H   0  0  0  0  0  0  0  0  0  0  0  0
   49.2733   33.6044   42.0671 H   0  0  0  0  0  0  0  0  0  0  0  0
   47.5199   32.2849   42.7520 H   0  0  0  0  0  0  0  0  0  0  0  0
   47.3280   31.5406   41.1117 H   0  0  0  0  0  0  0  0  0  0  0  0
  1  2  1  0
  1 10  1  0
  3  2  2  0
  4  5  1  0
  4  3  1  0
  5  1  2  0
  6  7  2  0
  8  7  1  0
  9  8  2  0
 10 11  2  0
 10  9  1  0
 11  6  1  0
 12  4  1  0
 13 12  1  0
 14 19  1  0
 14 13  1  0
 15 14  1  0
 16 15  1  0
 16 17  1  0
 17 18  1  0
 18 19  1  0
  2 20  1  0
  3 21  1  0
  6 22  1  0
  7 23  1  0
  8 24  1  0
 12 25  1  0
 12 26  1  0
 13 27  1  0
 13 28  1  0
 15 29  1  0
 15 30  1  0
 16 31  1  0
 16 32  1  0
 17 33  1  0
 18 34  1  0
 18 35  1  0
 19 36  1  0
 19 37  1  0
M  ISO  8  20  14  21  14  22  14  23  14  24  14  25   8  26   8  27   8
M  ISO  8  28   8  29  13  30  13  31  13  32  13  33   5  34  13  35  13
M  ISO  2  36  13  37  13
M  END
>  <minimizedAffinity>  (1) 
-5.11484861

>  <minimizedRMSD>  (1) 
7.66888809

$$$$
