
     RDKit          3D

 37 40  0  0  0  0  0  0  0  0999 V2000
   47.3420   30.2050   47.6450 C   0  0  0  0  0  0  0  0  0  0  0  0
   46.5560   32.6620   45.1580 C   0  0  0  0  0  0  0  0  0  0  0  0
   47.2800   31.7050   44.4200 C   0  0  0  0  0  0  0  0  0  0  0  0
   47.6480   30.6930   45.2470 C   0  0  0  0  0  0  0  0  0  0  0  0
   47.1700   31.0150   46.4500 N   0  0  0  0  0  0  0  0  0  0  0  0
   46.5130   32.1920   46.4100 N   0  0  0  0  0  0  0  0  0  0  0  0
   44.5660   35.7030   44.8300 C   0  0  0  0  0  0  0  0  0  0  0  0
   44.9410   36.1980   43.5810 C   0  0  0  0  0  0  0  0  0  0  0  0
   45.8890   35.4710   42.8550 C   0  0  0  0  0  0  0  0  0  0  0  0
   46.3780   34.3370   43.4080 N   0  0  0  0  0  0  0  0  0  0  0  0
   46.0020   33.8820   44.6070 C   0  0  0  0  0  0  0  0  0  0  0  0
   45.0940   34.5730   45.3130 N   0  0  0  0  0  0  0  0  0  0  0  0
   46.0070   29.9590   48.2620 C   0  0  0  0  0  0  0  0  0  0  0  0
   45.1160   27.5420   47.9070 C   0  0  0  0  0  0  0  0  0  0  0  0
   45.2050   28.8910   47.6590 C   0  0  0  0  0  0  0  0  0  0  0  0
   44.3770   29.3720   46.6460 C   0  0  0  0  0  0  0  0  0  0  0  0
   43.5160   28.5600   45.9270 C   0  0  0  0  0  0  0  0  0  0  0  0
   42.6290   28.7330   44.9310 N   0  0  0  0  0  0  0  0  0  0  0  0
   42.0420   27.5730   44.5970 C   0  0  0  0  0  0  0  0  0  0  0  0
   42.5460   26.5660   45.3960 C   0  0  0  0  0  0  0  0  0  0  0  0
   43.4510   27.2130   46.2010 C   0  0  0  0  0  0  0  0  0  0  0  0
   44.2660   26.7260   47.2020 C   0  0  0  0  0  0  0  0  0  0  0  0
   47.9867   30.7361   48.3607 H   0  0  0  0  0  0  0  0  0  0  0  0
   47.8106   29.2460   47.3792 H   0  0  0  0  0  0  0  0  0  0  0  0
   47.5102   31.7676   43.3462 H   0  0  0  0  0  0  0  0  0  0  0  0
   48.2219   29.7933   44.9801 H   0  0  0  0  0  0  0  0  0  0  0  0
   43.8233   36.2514   45.4280 H   0  0  0  0  0  0  0  0  0  0  0  0
   44.5067   37.1265   43.1819 H   0  0  0  0  0  0  0  0  0  0  0  0
   46.2270   35.8104   41.8647 H   0  0  0  0  0  0  0  0  0  0  0  0
   46.1677   29.7024   49.3195 H   0  0  0  0  0  0  0  0  0  0  0  0
   45.4335   30.8843   48.1040 H   0  0  0  0  0  0  0  0  0  0  0  0
   45.7453   27.1024   48.6948 H   0  0  0  0  0  0  0  0  0  0  0  0
   44.4090   30.4452   46.4069 H   0  0  0  0  0  0  0  0  0  0  0  0
   42.4264   29.6380   44.4828 H   0  0  0  0  0  0  0  0  0  0  0  0
   41.2815   27.4451   43.8126 H   0  0  0  0  0  0  0  0  0  0  0  0
   42.2843   25.4976   45.3893 H   0  0  0  0  0  0  0  0  0  0  0  0
   44.2339   25.6530   47.4423 H   0  0  0  0  0  0  0  0  0  0  0  0
  1 13  1  0
  2  6  2  0
  3  2  1  0
  3  4  2  0
  4  5  1  0
  5  1  1  0
  6  5  1  0
  7 12  2  0
  8  7  1  0
  9 10  1  0
  9  8  2  0
 10 11  2  0
 11  2  1  0
 11 12  1  0
 15 14  2  0
 15 13  1  0
 16 15  1  0
 17 21  1  0
 17 16  2  0
 18 17  1  0
 19 18  1  0
 19 20  2  0
 20 21  1  0
 21 22  2  0
 22 14  1  0
  1 23  1  0
  1 24  1  0
  3 25  1  0
  4 26  1  0
  7 27  1  0
  8 28  1  0
  9 29  1  0
 13 30  1  0
 13 31  1  0
 14 32  1  0
 16 33  1  0
 18 34  1  0
 19 35  1  0
 20 36  1  0
 22 37  1  0
M  ISO  8  23   8  24   8  25  14  26  14  27  14  28  14  29  14  30   8
M  ISO  7  31   8  32  14  33  14  34   9  35  14  36  14  37  14
M  END
>  <minimizedAffinity>  (1) 
-5.12808371

>  <minimizedRMSD>  (1) 
2.12583852

$$$$
