
     RDKit          3D

 49 52  0  0  1  0  0  0  0  0999 V2000
   47.2500   34.2030   42.3580 C   0  0  2  0  0  0  0  0  0  0  0  0
   48.6220   34.7640   42.5650 C   0  0  0  0  0  0  0  0  0  0  0  0
   48.9840   35.7750   41.5480 C   0  0  0  0  0  0  0  0  0  0  0  0
   48.8430   35.2760   40.1280 C   0  0  0  0  0  0  0  0  0  0  0  0
   47.6490   34.3840   39.9160 C   0  0  0  0  0  0  0  0  0  0  0  0
   46.6390   34.4890   41.0350 C   0  0  1  0  0  0  0  0  0  0  0  0
   46.3150   34.5550   43.4440 C   0  0  0  0  0  0  0  0  0  0  0  0
   45.6010   35.7150   43.1940 C   0  0  0  0  0  0  0  0  0  0  0  0
   44.6650   36.1760   44.1350 C   0  0  0  0  0  0  0  0  0  0  0  0
   44.5350   35.3900   45.2880 N   0  0  0  0  0  0  0  0  0  0  0  0
   45.2560   34.2680   45.4840 C   0  0  0  0  0  0  0  0  0  0  0  0
   46.1410   33.8640   44.5530 N   0  0  0  0  0  0  0  0  0  0  0  0
   45.5710   33.4580   40.7840 C   0  0  2  0  0  0  0  0  0  0  0  0
   45.1970   33.1550   39.3520 C   0  0  0  0  0  0  0  0  0  0  0  0
   44.2480   33.8670   40.2400 C   0  0  1  0  0  0  0  0  0  0  0  0
   43.0990   33.2080   40.9130 C   0  0  0  0  0  0  0  0  0  0  0  0
   42.1660   34.1490   41.6200 C   0  0  0  0  0  0  0  0  0  0  0  0
   40.5910   31.7220   42.4110 Cl  0  0  0  0  0  0  0  0  0  0  0  0
   40.1010   32.9580   41.2860 C   0  0  0  0  0  0  0  0  0  0  0  0
   40.8510   34.0860   40.9280 C   0  0  0  0  0  0  0  0  0  0  0  0
   40.3600   35.0030   40.0220 C   0  0  0  0  0  0  0  0  0  0  0  0
   39.1110   34.7540   39.4960 C   0  0  0  0  0  0  0  0  0  0  0  0
   38.3080   33.6870   39.7820 C   0  0  0  0  0  0  0  0  0  0  0  0
   38.8430   32.7870   40.7010 C   0  0  0  0  0  0  0  0  0  0  0  0
   37.8350   31.3900   41.1010 Cl  0  0  0  0  0  0  0  0  0  0  0  0
   47.4229   33.1169   42.3804 H   0  0  0  0  0  0  0  0  0  0  0  0
   48.6640   35.2337   43.5588 H   0  0  0  0  0  0  0  0  0  0  0  0
   49.3376   33.9332   42.4775 H   0  0  0  0  0  0  0  0  0  0  0  0
   48.3289   36.6492   41.6769 H   0  0  0  0  0  0  0  0  0  0  0  0
   50.0446   36.0237   41.7008 H   0  0  0  0  0  0  0  0  0  0  0  0
   48.7491   36.1462   39.4618 H   0  0  0  0  0  0  0  0  0  0  0  0
   49.7371   34.6740   39.9084 H   0  0  0  0  0  0  0  0  0  0  0  0
   47.1602   34.6681   38.9724 H   0  0  0  0  0  0  0  0  0  0  0  0
   48.0098   33.3452   39.8894 H   0  0  0  0  0  0  0  0  0  0  0  0
   46.2383   35.5133   41.0527 H   0  0  0  0  0  0  0  0  0  0  0  0
   45.7662   36.2740   42.2611 H   0  0  0  0  0  0  0  0  0  0  0  0
   44.0749   37.0909   43.9776 H   0  0  0  0  0  0  0  0  0  0  0  0
   45.1213   33.6820   46.4051 H   0  0  0  0  0  0  0  0  0  0  0  0
   45.8974   32.8782   41.6599 H   0  0  0  0  0  0  0  0  0  0  0  0
   44.9917   32.1193   39.0434 H   0  0  0  0  0  0  0  0  0  0  0  0
   45.6468   33.3572   38.3688 H   0  0  0  0  0  0  0  0  0  0  0  0
   43.6680   34.7864   40.0718 H   0  0  0  0  0  0  0  0  0  0  0  0
   42.5232   32.6609   40.1520 H   0  0  0  0  0  0  0  0  0  0  0  0
   43.5248   32.5513   41.6859 H   0  0  0  0  0  0  0  0  0  0  0  0
   42.0515   33.8442   42.6707 H   0  0  0  0  0  0  0  0  0  0  0  0
   42.5638   35.1743   41.5992 H   0  0  0  0  0  0  0  0  0  0  0  0
   40.9391   35.8924   39.7327 H   0  0  0  0  0  0  0  0  0  0  0  0
   38.7222   35.4873   38.7742 H   0  0  0  0  0  0  0  0  0  0  0  0
   37.3177   33.5492   39.3233 H   0  0  0  0  0  0  0  0  0  0  0  0
  1  2  1  0
  1  7  1  0
  3  2  1  0
  4  3  1  0
  5  4  1  0
  5  6  1  0
  6  1  1  0
  7 12  1  0
  8  7  2  0
  8  9  1  0
  9 10  2  0
 10 11  1  0
 12 11  2  0
 13  6  1  0
 14 15  1  0
 14 13  1  0
 15 13  1  0
 15 16  1  0
 16 17  1  0
 19 18  1  0
 20 19  2  0
 20 17  1  0
 21 20  1  0
 22 23  1  0
 22 21  2  0
 23 24  2  0
 24 25  1  0
 24 19  1  0
  1 26  1  6
  2 27  1  0
  2 28  1  0
  3 29  1  0
  3 30  1  0
  4 31  1  0
  4 32  1  0
  5 33  1  0
  5 34  1  0
  6 35  1  1
  8 36  1  0
  9 37  1  0
 11 38  1  0
 13 39  1  1
 14 40  1  0
 14 41  1  0
 15 42  1  6
 16 43  1  0
 16 44  1  0
 17 45  1  0
 17 46  1  0
 21 47  1  0
 22 48  1  0
 23 49  1  0
M  ISO  8  26  13  27  13  28  13  29  13  30  13  31  13  32  13  33  13
M  ISO  8  34  13  35  13  36  14  37  14  38  14  39  13  40  13  41  13
M  ISO  8  42  13  43   8  44   8  45   8  46   8  47  14  48  14  49  14
M  END
>  <minimizedAffinity>  (1) 
-7.26875925

>  <minimizedRMSD>  (1) 
2.37472153

$$$$
