
     RDKit          3D

 44 48  0  0  0  0  0  0  0  0999 V2000
   45.9500   30.3190   48.5040 C   0  0  0  0  0  0  0  0  0  0  0  0
   45.4760   27.8360   48.0030 C   0  0  0  0  0  0  0  0  0  0  0  0
   45.3010   29.2030   47.8340 C   0  0  0  0  0  0  0  0  0  0  0  0
   44.3760   29.5720   46.8830 C   0  0  0  0  0  0  0  0  0  0  0  0
   43.6600   28.6600   46.1370 C   0  0  0  0  0  0  0  0  0  0  0  0
   42.7230   28.7280   45.1780 N   0  0  0  0  0  0  0  0  0  0  0  0
   42.3420   27.5140   44.7800 C   0  0  0  0  0  0  0  0  0  0  0  0
   43.0470   26.5780   45.4940 C   0  0  0  0  0  0  0  0  0  0  0  0
   43.8510   27.3030   46.3220 C   0  0  0  0  0  0  0  0  0  0  0  0
   44.7660   26.9170   47.2620 C   0  0  0  0  0  0  0  0  0  0  0  0
   45.1120   25.5550   47.6020 C   0  0  0  0  0  0  0  0  0  0  0  0
   45.1210   24.4290   46.9200 C   0  0  0  0  0  0  0  0  0  0  0  0
   45.5000   23.2440   47.4400 C   0  0  0  0  0  0  0  0  0  0  0  0
   45.9030   23.2410   48.7900 C   0  0  0  0  0  0  0  0  0  0  0  0
   45.6790   25.0590   49.1840 S   0  0  0  0  0  0  0  0  0  0  0  0
   47.2740   30.7380   47.9840 C   0  0  0  0  0  0  0  0  0  0  0  0
   46.5340   32.9010   45.2310 C   0  0  0  0  0  0  0  0  0  0  0  0
   47.2240   31.8570   44.5980 C   0  0  0  0  0  0  0  0  0  0  0  0
   47.5800   30.9370   45.5300 C   0  0  0  0  0  0  0  0  0  0  0  0
   47.1240   31.3980   46.6970 N   0  0  0  0  0  0  0  0  0  0  0  0
   46.4940   32.5780   46.5330 N   0  0  0  0  0  0  0  0  0  0  0  0
   44.5390   35.8740   44.5350 C   0  0  0  0  0  0  0  0  0  0  0  0
   44.9690   36.2780   43.2820 C   0  0  0  0  0  0  0  0  0  0  0  0
   45.9560   35.5150   42.6760 C   0  0  0  0  0  0  0  0  0  0  0  0
   46.4330   34.4310   43.3430 N   0  0  0  0  0  0  0  0  0  0  0  0
   45.9970   34.0700   44.5500 C   0  0  0  0  0  0  0  0  0  0  0  0
   45.0500   34.7950   45.1410 N   0  0  0  0  0  0  0  0  0  0  0  0
   45.2763   31.1857   48.4336 H   0  0  0  0  0  0  0  0  0  0  0  0
   46.1438   29.9646   49.5272 H   0  0  0  0  0  0  0  0  0  0  0  0
   46.2009   27.4773   48.7485 H   0  0  0  0  0  0  0  0  0  0  0  0
   44.2002   30.6441   46.7105 H   0  0  0  0  0  0  0  0  0  0  0  0
   42.3458   29.6077   44.7975 H   0  0  0  0  0  0  0  0  0  0  0  0
   41.5884   27.2986   44.0082 H   0  0  0  0  0  0  0  0  0  0  0  0
   42.9783   25.4830   45.4154 H   0  0  0  0  0  0  0  0  0  0  0  0
   44.8017   24.4563   45.8677 H   0  0  0  0  0  0  0  0  0  0  0  0
   45.4948   22.3230   46.8385 H   0  0  0  0  0  0  0  0  0  0  0  0
   46.2483   22.4131   49.4267 H   0  0  0  0  0  0  0  0  0  0  0  0
   47.7402   31.4341   48.6968 H   0  0  0  0  0  0  0  0  0  0  0  0
   47.9075   29.8476   47.8582 H   0  0  0  0  0  0  0  0  0  0  0  0
   47.4413   31.7941   43.5215 H   0  0  0  0  0  0  0  0  0  0  0  0
   48.1323   30.0012   45.3586 H   0  0  0  0  0  0  0  0  0  0  0  0
   43.7570   36.4550   45.0458 H   0  0  0  0  0  0  0  0  0  0  0  0
   44.5460   37.1656   42.7888 H   0  0  0  0  0  0  0  0  0  0  0  0
   46.3429   35.7803   41.6810 H   0  0  0  0  0  0  0  0  0  0  0  0
  3  2  2  0
  3  1  1  0
  4  3  1  0
  5  9  1  0
  5  4  2  0
  6  5  1  0
  7  6  1  0
  7  8  2  0
  8  9  1  0
  9 10  2  0
 10 11  1  0
 10  2  1  0
 11 15  1  0
 12 13  1  0
 12 11  2  0
 13 14  2  0
 14 15  1  0
 16  1  1  0
 17 21  2  0
 18 17  1  0
 18 19  2  0
 19 20  1  0
 20 16  1  0
 21 20  1  0
 22 27  2  0
 23 22  1  0
 24 23  2  0
 24 25  1  0
 25 26  2  0
 26 27  1  0
 26 17  1  0
  1 28  1  0
  1 29  1  0
  2 30  1  0
  4 31  1  0
  6 32  1  0
  7 33  1  0
  8 34  1  0
 12 35  1  0
 13 36  1  0
 14 37  1  0
 16 38  1  0
 16 39  1  0
 18 40  1  0
 19 41  1  0
 22 42  1  0
 23 43  1  0
 24 44  1  0
M  ISO  8  28   8  29   8  30  14  31  14  32   9  33  14  34  14  35  14
M  ISO  8  36  14  37  14  38   8  39   8  40  14  41  14  42  14  43  14
M  ISO  1  44  14
M  END
>  <minimizedAffinity>  (1) 
-5.44344044

>  <minimizedRMSD>  (1) 
0.575405836

$$$$
