
     RDKit          3D

 52 56  0  0  1  0  0  0  0  0999 V2000
   47.1310   34.1150   42.4620 C   0  0  2  0  0  0  0  0  0  0  0  0
   48.5380   34.6020   42.6420 C   0  0  0  0  0  0  0  0  0  0  0  0
   48.9150   35.6180   41.6320 C   0  0  0  0  0  0  0  0  0  0  0  0
   48.7350   35.1050   40.2200 C   0  0  0  0  0  0  0  0  0  0  0  0
   47.4620   34.3530   40.0110 C   0  0  0  0  0  0  0  0  0  0  0  0
   46.4970   34.4620   41.1660 C   0  0  1  0  0  0  0  0  0  0  0  0
   46.2470   34.4950   43.5830 C   0  0  0  0  0  0  0  0  0  0  0  0
   45.5570   35.6730   43.3580 C   0  0  0  0  0  0  0  0  0  0  0  0
   44.6710   36.1590   44.3350 C   0  0  0  0  0  0  0  0  0  0  0  0
   44.5620   35.3790   45.4920 N   0  0  0  0  0  0  0  0  0  0  0  0
   45.2590   34.2370   45.6620 C   0  0  0  0  0  0  0  0  0  0  0  0
   46.0950   33.8110   44.6980 N   0  0  0  0  0  0  0  0  0  0  0  0
   45.3770   33.4860   40.9280 C   0  0  2  0  0  0  0  0  0  0  0  0
   44.9150   33.2720   39.5000 C   0  0  0  0  0  0  0  0  0  0  0  0
   44.0480   33.9690   40.4640 C   0  0  1  0  0  0  0  0  0  0  0  0
   42.9040   33.3150   41.1790 C   0  0  0  0  0  0  0  0  0  0  0  0
   41.6540   34.1410   41.2180 C   0  0  0  0  0  0  0  0  0  0  0  0
   39.3530   33.6730   40.5160 C   0  0  0  0  0  0  0  0  0  0  0  0
   40.4900   33.2150   41.1680 C   0  0  0  0  0  0  0  0  0  0  0  0
   40.5290   31.9420   41.7470 C   0  0  0  0  0  0  0  0  0  0  0  0
   39.4030   31.1230   41.6640 C   0  0  0  0  0  0  0  0  0  0  0  0
   39.1680   29.8690   42.1260 N   0  0  0  0  0  0  0  0  0  0  0  0
   37.8970   29.5170   41.7790 C   0  0  0  0  0  0  0  0  0  0  0  0
   37.3650   30.5480   41.1130 N   0  0  0  0  0  0  0  0  0  0  0  0
   38.2460   31.5590   41.0130 C   0  0  0  0  0  0  0  0  0  0  0  0
   38.2730   32.8190   40.4660 C   0  0  0  0  0  0  0  0  0  0  0  0
   47.2483   33.0213   42.4547 H   0  0  0  0  0  0  0  0  0  0  0  0
   48.6329   35.0467   43.6436 H   0  0  0  0  0  0  0  0  0  0  0  0
   49.2106   33.7402   42.5196 H   0  0  0  0  0  0  0  0  0  0  0  0
   48.2834   36.5079   41.7701 H   0  0  0  0  0  0  0  0  0  0  0  0
   49.9786   35.8603   41.7733 H   0  0  0  0  0  0  0  0  0  0  0  0
   48.7467   35.9650   39.5342 H   0  0  0  0  0  0  0  0  0  0  0  0
   49.5585   34.4019   40.0266 H   0  0  0  0  0  0  0  0  0  0  0  0
   46.9702   34.7464   39.1091 H   0  0  0  0  0  0  0  0  0  0  0  0
   47.7285   33.2902   39.9137 H   0  0  0  0  0  0  0  0  0  0  0  0
   46.1456   35.5029   41.2207 H   0  0  0  0  0  0  0  0  0  0  0  0
   45.7012   36.2268   42.4186 H   0  0  0  0  0  0  0  0  0  0  0  0
   44.1013   37.0902   44.1993 H   0  0  0  0  0  0  0  0  0  0  0  0
   45.1440   33.6545   46.5880 H   0  0  0  0  0  0  0  0  0  0  0  0
   45.7213   32.8541   41.7600 H   0  0  0  0  0  0  0  0  0  0  0  0
   44.6514   32.2624   39.1519 H   0  0  0  0  0  0  0  0  0  0  0  0
   45.3219   33.5075   38.5055 H   0  0  0  0  0  0  0  0  0  0  0  0
   43.4968   34.9154   40.3614 H   0  0  0  0  0  0  0  0  0  0  0  0
   42.6756   32.3667   40.6705 H   0  0  0  0  0  0  0  0  0  0  0  0
   43.2222   33.1719   42.2222 H   0  0  0  0  0  0  0  0  0  0  0  0
   41.6238   34.7290   42.1472 H   0  0  0  0  0  0  0  0  0  0  0  0
   41.6275   34.8351   40.3650 H   0  0  0  0  0  0  0  0  0  0  0  0
   39.3161   34.6732   40.0597 H   0  0  0  0  0  0  0  0  0  0  0  0
   41.4361   31.5915   42.2611 H   0  0  0  0  0  0  0  0  0  0  0  0
   39.8349   29.2836   42.6489 H   0  0  0  0  0  0  0  0  0  0  0  0
   37.4008   28.5616   42.0050 H   0  0  0  0  0  0  0  0  0  0  0  0
   37.3671   33.1714   39.9510 H   0  0  0  0  0  0  0  0  0  0  0  0
  1  2  1  0
  1  7  1  0
  3  2  1  0
  4  3  1  0
  5  4  1  0
  5  6  1  0
  6  1  1  0
  7 12  1  0
  8  7  2  0
  8  9  1  0
  9 10  2  0
 10 11  1  0
 12 11  2  0
 13  6  1  0
 14 15  1  0
 14 13  1  0
 15 13  1  0
 15 16  1  0
 16 17  1  0
 18 19  2  0
 19 17  1  0
 19 20  1  0
 21 20  2  0
 21 22  1  0
 23 22  1  0
 24 23  2  0
 25 24  1  0
 25 21  1  0
 26 18  1  0
 26 25  2  0
  1 27  1  6
  2 28  1  0
  2 29  1  0
  3 30  1  0
  3 31  1  0
  4 32  1  0
  4 33  1  0
  5 34  1  0
  5 35  1  0
  6 36  1  1
  8 37  1  0
  9 38  1  0
 11 39  1  0
 13 40  1  1
 14 41  1  0
 14 42  1  0
 15 43  1  6
 16 44  1  0
 16 45  1  0
 17 46  1  0
 17 47  1  0
 18 48  1  0
 20 49  1  0
 22 50  1  0
 23 51  1  0
 26 52  1  0
M  ISO  8  27  13  28  13  29  13  30  13  31  13  32  13  33  13  34  13
M  ISO  8  35  13  36  13  37  14  38  14  39  14  40  13  41  13  42  13
M  ISO  8  43  13  44   8  45   8  46   8  47   8  48  14  49  14  50   9
M  ISO  2  51  14  52  14
M  END
>  <minimizedAffinity>  (1) 
-7.13645649

>  <minimizedRMSD>  (1) 
1.55673075

$$$$
