
     RDKit          3D

 47 51  0  0  0  0  0  0  0  0999 V2000
   45.5520   27.9720   47.8940 C   0  0  0  0  0  0  0  0  0  0  0  0
   45.0650   29.2590   47.9050 C   0  0  0  0  0  0  0  0  0  0  0  0
   44.1930   29.5950   46.8630 C   0  0  0  0  0  0  0  0  0  0  0  0
   43.8410   28.6950   45.8820 C   0  0  0  0  0  0  0  0  0  0  0  0
   43.0540   28.7300   44.7930 N   0  0  0  0  0  0  0  0  0  0  0  0
   43.0520   27.5520   44.1540 C   0  0  0  0  0  0  0  0  0  0  0  0
   43.8770   26.6750   44.8400 C   0  0  0  0  0  0  0  0  0  0  0  0
   44.3390   27.4220   45.8910 C   0  0  0  0  0  0  0  0  0  0  0  0
   45.1970   27.0780   46.9110 C   0  0  0  0  0  0  0  0  0  0  0  0
   43.8380   25.2300   48.3930 F   0  0  0  0  0  0  0  0  0  0  0  0
   45.0430   24.8990   47.8310 C   0  0  0  0  0  0  0  0  0  0  0  0
   45.8100   25.7640   47.0630 C   0  0  0  0  0  0  0  0  0  0  0  0
   47.0050   25.3620   46.5330 C   0  0  0  0  0  0  0  0  0  0  0  0
   47.4300   24.0880   46.7760 C   0  0  0  0  0  0  0  0  0  0  0  0
   46.6690   23.2140   47.5450 C   0  0  0  0  0  0  0  0  0  0  0  0
   45.4650   23.6120   48.0800 C   0  0  0  0  0  0  0  0  0  0  0  0
   45.3040   30.3550   48.8330 C   0  0  0  0  0  0  0  0  0  0  0  0
   46.5930   31.0850   48.6900 C   0  0  0  0  0  0  0  0  0  0  0  0
   46.3270   33.0440   45.7110 C   0  0  0  0  0  0  0  0  0  0  0  0
   47.2240   32.0440   45.3170 C   0  0  0  0  0  0  0  0  0  0  0  0
   47.4310   31.2020   46.3630 C   0  0  0  0  0  0  0  0  0  0  0  0
   46.6830   31.6750   47.3650 N   0  0  0  0  0  0  0  0  0  0  0  0
   46.0190   32.7760   46.9880 N   0  0  0  0  0  0  0  0  0  0  0  0
   44.4720   35.9490   44.5010 C   0  0  0  0  0  0  0  0  0  0  0  0
   44.9990   36.1630   43.2380 C   0  0  0  0  0  0  0  0  0  0  0  0
   45.9980   35.3020   42.8040 C   0  0  0  0  0  0  0  0  0  0  0  0
   46.3950   34.3090   43.6380 N   0  0  0  0  0  0  0  0  0  0  0  0
   45.8710   34.1240   44.8490 C   0  0  0  0  0  0  0  0  0  0  0  0
   44.9030   34.9470   45.2870 N   0  0  0  0  0  0  0  0  0  0  0  0
   46.2408   27.6510   48.6894 H   0  0  0  0  0  0  0  0  0  0  0  0
   43.7750   30.6118   46.8265 H   0  0  0  0  0  0  0  0  0  0  0  0
   42.5205   29.5567   44.4884 H   0  0  0  0  0  0  0  0  0  0  0  0
   42.4893   27.3199   43.2377 H   0  0  0  0  0  0  0  0  0  0  0  0
   44.1065   25.6268   44.5978 H   0  0  0  0  0  0  0  0  0  0  0  0
   47.6101   26.0501   45.9244 H   0  0  0  0  0  0  0  0  0  0  0  0
   48.3886   23.7474   46.3575 H   0  0  0  0  0  0  0  0  0  0  0  0
   47.0338   22.1925   47.7278 H   0  0  0  0  0  0  0  0  0  0  0  0
   44.8589   22.9237   48.6874 H   0  0  0  0  0  0  0  0  0  0  0  0
   44.4916   31.0850   48.7024 H   0  0  0  0  0  0  0  0  0  0  0  0
   45.3467   29.8867   49.8274 H   0  0  0  0  0  0  0  0  0  0  0  0
   46.6477   31.8804   49.4479 H   0  0  0  0  0  0  0  0  0  0  0  0
   47.4258   30.3801   48.8299 H   0  0  0  0  0  0  0  0  0  0  0  0
   47.6859   31.9545   44.3227 H   0  0  0  0  0  0  0  0  0  0  0  0
   48.0802   30.3142   46.3816 H   0  0  0  0  0  0  0  0  0  0  0  0
   43.6798   36.6166   44.8707 H   0  0  0  0  0  0  0  0  0  0  0  0
   44.6391   36.9852   42.6020 H   0  0  0  0  0  0  0  0  0  0  0  0
   46.4551   35.4220   41.8107 H   0  0  0  0  0  0  0  0  0  0  0  0
  1  2  2  0
  2 17  1  0
  3  2  1  0
  4  8  1  0
  4  3  2  0
  5  4  1  0
  6  5  1  0
  6  7  2  0
  7  8  1  0
  8  9  2  0
  9 12  1  0
  9  1  1  0
 11 16  2  0
 11 10  1  0
 12 11  1  0
 13 14  1  0
 13 12  2  0
 14 15  2  0
 15 16  1  0
 18 17  1  0
 19 23  2  0
 20 19  1  0
 20 21  2  0
 21 22  1  0
 22 18  1  0
 23 22  1  0
 24 29  2  0
 25 24  1  0
 26 25  2  0
 26 27  1  0
 27 28  2  0
 28 29  1  0
 28 19  1  0
  1 30  1  0
  3 31  1  0
  5 32  1  0
  6 33  1  0
  7 34  1  0
 13 35  1  0
 14 36  1  0
 15 37  1  0
 16 38  1  0
 17 39  1  0
 17 40  1  0
 18 41  1  0
 18 42  1  0
 20 43  1  0
 21 44  1  0
 24 45  1  0
 25 46  1  0
 26 47  1  0
M  ISO  8  30  14  31  14  32   9  33  14  34  14  35  14  36  14  37  14
M  ISO  8  38  14  39   8  40   8  41   8  42   8  43  14  44  14  45  14
M  ISO  2  46  14  47  14
M  END
>  <minimizedAffinity>  (1) 
-5.56507683

>  <minimizedRMSD>  (1) 
1.35460138

$$$$
