
     RDKit          3D

 49 52  0  0  1  0  0  0  0  0999 V2000
   46.9300   34.0400   42.5560 C   0  0  2  0  0  0  0  0  0  0  0  0
   48.3800   34.3850   42.7290 C   0  0  0  0  0  0  0  0  0  0  0  0
   48.8450   35.3860   41.7470 C   0  0  0  0  0  0  0  0  0  0  0  0
   48.5950   34.9450   40.3190 C   0  0  0  0  0  0  0  0  0  0  0  0
   47.2480   34.3380   40.1090 C   0  0  0  0  0  0  0  0  0  0  0  0
   46.3170   34.4890   41.2850 C   0  0  1  0  0  0  0  0  0  0  0  0
   46.1030   34.4550   43.7050 C   0  0  0  0  0  0  0  0  0  0  0  0
   45.4400   35.6520   43.4910 C   0  0  0  0  0  0  0  0  0  0  0  0
   44.6070   36.1780   44.4940 C   0  0  0  0  0  0  0  0  0  0  0  0
   44.5200   35.4160   45.6650 N   0  0  0  0  0  0  0  0  0  0  0  0
   45.1880   34.2550   45.8220 C   0  0  0  0  0  0  0  0  0  0  0  0
   45.9730   33.7910   44.8330 N   0  0  0  0  0  0  0  0  0  0  0  0
   45.1010   33.6410   41.0300 C   0  0  2  0  0  0  0  0  0  0  0  0
   44.6910   33.4110   39.5880 C   0  0  0  0  0  0  0  0  0  0  0  0
   43.8630   34.2480   40.4710 C   0  0  1  0  0  0  0  0  0  0  0  0
   42.6140   33.7720   41.1480 C   0  0  0  0  0  0  0  0  0  0  0  0
   41.4890   34.7660   41.1180 C   0  0  0  0  0  0  0  0  0  0  0  0
   40.4890   34.4890   40.0650 C   0  0  0  0  0  0  0  0  0  0  0  0
   39.2920   33.8650   40.3490 C   0  0  0  0  0  0  0  0  0  0  0  0
   38.3180   33.5780   39.4170 C   0  0  0  0  0  0  0  0  0  0  0  0
   38.5730   33.9480   38.1070 C   0  0  0  0  0  0  0  0  0  0  0  0
   39.7650   34.5840   37.7520 C   0  0  0  0  0  0  0  0  0  0  0  0
   40.7240   34.8540   38.7340 C   0  0  0  0  0  0  0  0  0  0  0  0
   46.9411   32.9411   42.5076 H   0  0  0  0  0  0  0  0  0  0  0  0
   48.5280   34.7889   43.7414 H   0  0  0  0  0  0  0  0  0  0  0  0
   48.9632   33.4659   42.5707 H   0  0  0  0  0  0  0  0  0  0  0  0
   48.3111   36.3312   41.9246 H   0  0  0  0  0  0  0  0  0  0  0  0
   49.9303   35.5089   41.8777 H   0  0  0  0  0  0  0  0  0  0  0  0
   48.6871   35.8229   39.6626 H   0  0  0  0  0  0  0  0  0  0  0  0
   49.3388   34.1688   40.0859 H   0  0  0  0  0  0  0  0  0  0  0  0
   46.7836   34.8202   39.2361 H   0  0  0  0  0  0  0  0  0  0  0  0
   47.4045   33.2589   39.9637 H   0  0  0  0  0  0  0  0  0  0  0  0
   46.0707   35.5563   41.3858 H   0  0  0  0  0  0  0  0  0  0  0  0
   45.5648   36.1894   42.5394 H   0  0  0  0  0  0  0  0  0  0  0  0
   44.0606   37.1242   44.3672 H   0  0  0  0  0  0  0  0  0  0  0  0
   45.0909   33.6872   46.7591 H   0  0  0  0  0  0  0  0  0  0  0  0
   45.3243   33.0181   41.9087 H   0  0  0  0  0  0  0  0  0  0  0  0
   44.3301   32.4221   39.2690 H   0  0  0  0  0  0  0  0  0  0  0  0
   45.1728   33.5497   38.6089 H   0  0  0  0  0  0  0  0  0  0  0  0
   43.4311   35.2444   40.2958 H   0  0  0  0  0  0  0  0  0  0  0  0
   42.2772   32.8526   40.6467 H   0  0  0  0  0  0  0  0  0  0  0  0
   42.8669   33.6079   42.2059 H   0  0  0  0  0  0  0  0  0  0  0  0
   40.9818   34.7482   42.0939 H   0  0  0  0  0  0  0  0  0  0  0  0
   41.9300   35.7491   40.8966 H   0  0  0  0  0  0  0  0  0  0  0  0
   39.1013   33.5760   41.3931 H   0  0  0  0  0  0  0  0  0  0  0  0
   37.3804   33.0776   39.7009 H   0  0  0  0  0  0  0  0  0  0  0  0
   37.8224   33.7370   37.3311 H   0  0  0  0  0  0  0  0  0  0  0  0
   39.9485   34.8709   36.7061 H   0  0  0  0  0  0  0  0  0  0  0  0
   41.6646   35.3541   38.4599 H   0  0  0  0  0  0  0  0  0  0  0  0
  1  2  1  0
  1  7  1  0
  3  2  1  0
  4  3  1  0
  5  4  1  0
  5  6  1  0
  6  1  1  0
  7 12  1  0
  8  7  2  0
  8  9  1  0
  9 10  2  0
 10 11  1  0
 12 11  2  0
 13  6  1  0
 14 15  1  0
 14 13  1  0
 15 13  1  0
 15 16  1  0
 17 16  1  0
 18 19  2  0
 18 17  1  0
 20 19  1  0
 21 20  2  0
 22 21  1  0
 22 23  2  0
 23 18  1  0
  1 24  1  6
  2 25  1  0
  2 26  1  0
  3 27  1  0
  3 28  1  0
  4 29  1  0
  4 30  1  0
  5 31  1  0
  5 32  1  0
  6 33  1  1
  8 34  1  0
  9 35  1  0
 11 36  1  0
 13 37  1  1
 14 38  1  0
 14 39  1  0
 15 40  1  6
 16 41  1  0
 16 42  1  0
 17 43  1  0
 17 44  1  0
 19 45  1  0
 20 46  1  0
 21 47  1  0
 22 48  1  0
 23 49  1  0
M  ISO  8  24  13  25  13  26  13  27  13  28  13  29  13  30  13  31  13
M  ISO  8  32  13  33  13  34  14  35  14  36  14  37  13  38  13  39  13
M  ISO  8  40  13  41   8  42   8  43   8  44   8  45  14  46  14  47  14
M  ISO  2  48  14  49  14
M  END
>  <minimizedAffinity>  (1) 
-7.12184715

>  <minimizedRMSD>  (1) 
1.30384862

$$$$
