
     RDKit          3D

 39 42  0  0  0  0  0  0  0  0999 V2000
   45.7920   30.0590   48.4370 C   0  0  0  0  0  0  0  0  0  0  0  0
   45.0060   27.6500   48.0150 C   0  0  0  0  0  0  0  0  0  0  0  0
   45.0600   29.0010   47.7560 C   0  0  0  0  0  0  0  0  0  0  0  0
   44.3030   29.4430   46.6740 C   0  0  0  0  0  0  0  0  0  0  0  0
   43.5460   28.5860   45.9100 C   0  0  0  0  0  0  0  0  0  0  0  0
   42.7390   28.7220   44.8410 N   0  0  0  0  0  0  0  0  0  0  0  0
   42.2220   27.5500   44.4630 C   0  0  0  0  0  0  0  0  0  0  0  0
   42.6990   26.5600   45.3160 C   0  0  0  0  0  0  0  0  0  0  0  0
   43.5040   27.2470   46.1830 C   0  0  0  0  0  0  0  0  0  0  0  0
   44.2490   26.7940   47.2520 C   0  0  0  0  0  0  0  0  0  0  0  0
   44.2450   25.3750   47.5920 C   0  0  0  0  0  0  0  0  0  0  0  0
   44.9220   24.9240   48.5510 O   0  0  0  0  0  0  0  0  0  0  0  0
   47.1470   30.3780   47.9200 C   0  0  0  0  0  0  0  0  0  0  0  0
   46.5090   32.7130   45.2880 C   0  0  0  0  0  0  0  0  0  0  0  0
   47.2570   31.7190   44.6250 C   0  0  0  0  0  0  0  0  0  0  0  0
   47.5750   30.7520   45.5110 C   0  0  0  0  0  0  0  0  0  0  0  0
   47.0480   31.1290   46.6800 N   0  0  0  0  0  0  0  0  0  0  0  0
   46.4090   32.2980   46.5600 N   0  0  0  0  0  0  0  0  0  0  0  0
   44.5630   35.7560   44.7390 C   0  0  0  0  0  0  0  0  0  0  0  0
   44.9880   36.1870   43.4850 C   0  0  0  0  0  0  0  0  0  0  0  0
   45.9570   35.4120   42.8290 C   0  0  0  0  0  0  0  0  0  0  0  0
   46.4090   34.3060   43.4590 N   0  0  0  0  0  0  0  0  0  0  0  0
   45.9900   33.9110   44.6580 C   0  0  0  0  0  0  0  0  0  0  0  0
   45.0620   34.6450   45.2950 N   0  0  0  0  0  0  0  0  0  0  0  0
   45.1875   30.9758   48.3730 H   0  0  0  0  0  0  0  0  0  0  0  0
   45.9554   29.6836   49.4580 H   0  0  0  0  0  0  0  0  0  0  0  0
   45.5856   27.2440   48.8571 H   0  0  0  0  0  0  0  0  0  0  0  0
   44.3108   30.5137   46.4219 H   0  0  0  0  0  0  0  0  0  0  0  0
   42.5445   29.6186   44.3728 H   0  0  0  0  0  0  0  0  0  0  0  0
   41.5343   27.3937   43.6188 H   0  0  0  0  0  0  0  0  0  0  0  0
   42.4809   25.4820   45.2977 H   0  0  0  0  0  0  0  0  0  0  0  0
   43.6343   24.6823   46.9943 H   0  0  0  0  0  0  0  0  0  0  0  0
   47.6883   30.9784   48.6660 H   0  0  0  0  0  0  0  0  0  0  0  0
   47.6878   29.4395   47.7285 H   0  0  0  0  0  0  0  0  0  0  0  0
   47.5356   31.7298   43.5609 H   0  0  0  0  0  0  0  0  0  0  0  0
   48.1521   29.8371   45.3112 H   0  0  0  0  0  0  0  0  0  0  0  0
   43.8042   36.3384   45.2822 H   0  0  0  0  0  0  0  0  0  0  0  0
   44.5800   37.0997   43.0262 H   0  0  0  0  0  0  0  0  0  0  0  0
   46.3354   35.6956   41.8358 H   0  0  0  0  0  0  0  0  0  0  0  0
  3  2  2  0
  3  1  1  0
  4  3  1  0
  5  9  1  0
  5  4  2  0
  6  5  1  0
  7  6  1  0
  7  8  2  0
  8  9  1  0
  9 10  2  0
 10 11  1  0
 10  2  1  0
 11 12  2  0
 13  1  1  0
 14 18  2  0
 15 14  1  0
 15 16  2  0
 16 17  1  0
 17 13  1  0
 18 17  1  0
 19 24  2  0
 20 19  1  0
 21 22  1  0
 21 20  2  0
 22 23  2  0
 23 14  1  0
 23 24  1  0
  1 25  1  0
  1 26  1  0
  2 27  1  0
  4 28  1  0
  6 29  1  0
  7 30  1  0
  8 31  1  0
 11 32  1  0
 13 33  1  0
 13 34  1  0
 15 35  1  0
 16 36  1  0
 19 37  1  0
 20 38  1  0
 21 39  1  0
M  ISO  8  25   8  26   8  27  14  28  14  29   9  30  14  31  14  32   6
M  ISO  7  33   8  34   8  35  14  36  14  37  14  38  14  39  14
M  END
>  <minimizedAffinity>  (1) 
-5.22531652

>  <minimizedRMSD>  (1) 
0.462755412

$$$$
