
     RDKit          3D

 52 56  0  0  0  0  0  0  0  0999 V2000
   47.1760   30.4990   48.0870 C   0  0  0  0  0  0  0  0  0  0  0  0
   46.7960   32.2510   44.9930 C   0  0  0  0  0  0  0  0  0  0  0  0
   47.5760   31.1480   44.6040 C   0  0  0  0  0  0  0  0  0  0  0  0
   47.8030   30.3820   45.6920 C   0  0  0  0  0  0  0  0  0  0  0  0
   47.1940   30.9780   46.7130 N   0  0  0  0  0  0  0  0  0  0  0  0
   46.5820   32.1040   46.3180 N   0  0  0  0  0  0  0  0  0  0  0  0
   45.2440   35.3290   43.7880 C   0  0  0  0  0  0  0  0  0  0  0  0
   45.4830   35.3070   42.4250 C   0  0  0  0  0  0  0  0  0  0  0  0
   46.1890   34.2110   41.9300 C   0  0  0  0  0  0  0  0  0  0  0  0
   46.5860   33.2620   42.7920 N   0  0  0  0  0  0  0  0  0  0  0  0
   46.3500   33.2970   44.1000 C   0  0  0  0  0  0  0  0  0  0  0  0
   45.6660   34.3540   44.5940 N   0  0  0  0  0  0  0  0  0  0  0  0
   46.5260   34.0170   40.5600 N   0  0  0  0  0  0  0  0  0  0  0  0
   47.8310   34.3850   40.0090 C   0  0  0  0  0  0  0  0  0  0  0  0
   48.4900   33.0960   39.5800 C   0  0  0  0  0  0  0  0  0  0  0  0
   47.6150   32.1390   39.1260 O   0  0  0  0  0  0  0  0  0  0  0  0
   46.4530   32.6680   38.5830 C   0  0  0  0  0  0  0  0  0  0  0  0
   45.6250   33.4450   39.5830 C   0  0  0  0  0  0  0  0  0  0  0  0
   45.7820   30.2110   48.5190 C   0  0  0  0  0  0  0  0  0  0  0  0
   45.0960   27.7750   48.1260 C   0  0  0  0  0  0  0  0  0  0  0  0
   45.0930   29.1300   47.8430 C   0  0  0  0  0  0  0  0  0  0  0  0
   44.3180   29.5230   46.7530 C   0  0  0  0  0  0  0  0  0  0  0  0
   43.6030   28.6150   46.0080 C   0  0  0  0  0  0  0  0  0  0  0  0
   42.7910   28.7040   44.9320 N   0  0  0  0  0  0  0  0  0  0  0  0
   42.3220   27.5060   44.5660 C   0  0  0  0  0  0  0  0  0  0  0  0
   42.8390   26.5490   45.4360 C   0  0  0  0  0  0  0  0  0  0  0  0
   43.6150   27.2790   46.2980 C   0  0  0  0  0  0  0  0  0  0  0  0
   44.3800   26.8850   47.3760 C   0  0  0  0  0  0  0  0  0  0  0  0
   44.4320   25.4680   47.7350 C   0  0  0  0  0  0  0  0  0  0  0  0
   44.9880   25.0750   48.8000 O   0  0  0  0  0  0  0  0  0  0  0  0
   47.6073   31.2683   48.7444 H   0  0  0  0  0  0  0  0  0  0  0  0
   47.7667   29.5731   48.1492 H   0  0  0  0  0  0  0  0  0  0  0  0
   47.9395   30.9439   43.5861 H   0  0  0  0  0  0  0  0  0  0  0  0
   48.3799   29.4461   45.7273 H   0  0  0  0  0  0  0  0  0  0  0  0
   44.6896   36.1756   44.2192 H   0  0  0  0  0  0  0  0  0  0  0  0
   45.1333   36.1143   41.7647 H   0  0  0  0  0  0  0  0  0  0  0  0
   47.7045   35.0538   39.1449 H   0  0  0  0  0  0  0  0  0  0  0  0
   48.4423   34.9179   40.7521 H   0  0  0  0  0  0  0  0  0  0  0  0
   49.2007   33.3244   38.7721 H   0  0  0  0  0  0  0  0  0  0  0  0
   48.9786   32.6789   40.4729 H   0  0  0  0  0  0  0  0  0  0  0  0
   46.7283   33.3423   37.7587 H   0  0  0  0  0  0  0  0  0  0  0  0
   45.8395   31.8222   38.2392 H   0  0  0  0  0  0  0  0  0  0  0  0
   45.0739   34.2463   39.0691 H   0  0  0  0  0  0  0  0  0  0  0  0
   44.8982   32.7819   40.0751 H   0  0  0  0  0  0  0  0  0  0  0  0
   45.8108   29.9669   49.5912 H   0  0  0  0  0  0  0  0  0  0  0  0
   45.2116   31.1164   48.2643 H   0  0  0  0  0  0  0  0  0  0  0  0
   45.6893   27.4056   48.9754 H   0  0  0  0  0  0  0  0  0  0  0  0
   44.2773   30.5882   46.4815 H   0  0  0  0  0  0  0  0  0  0  0  0
   42.5613   29.5861   44.4524 H   0  0  0  0  0  0  0  0  0  0  0  0
   41.6440   27.3101   43.7223 H   0  0  0  0  0  0  0  0  0  0  0  0
   42.6653   25.4628   45.4321 H   0  0  0  0  0  0  0  0  0  0  0  0
   43.9764   24.7266   47.0621 H   0  0  0  0  0  0  0  0  0  0  0  0
  1 19  1  0
  2  6  2  0
  3  2  1  0
  3  4  2  0
  4  5  1  0
  5  1  1  0
  6  5  1  0
  7 12  2  0
  8  7  1  0
  9  8  2  0
  9 10  1  0
 10 11  2  0
 11 12  1  0
 11  2  1  0
 13  9  1  0
 14 13  1  0
 15 14  1  0
 16 15  1  0
 17 16  1  0
 17 18  1  0
 18 13  1  0
 21 20  2  0
 21 19  1  0
 22 21  1  0
 23 27  1  0
 23 22  2  0
 24 23  1  0
 25 24  1  0
 25 26  2  0
 26 27  1  0
 27 28  2  0
 28 29  1  0
 28 20  1  0
 29 30  2  0
  1 31  1  0
  1 32  1  0
  3 33  1  0
  4 34  1  0
  7 35  1  0
  8 36  1  0
 14 37  1  0
 14 38  1  0
 15 39  1  0
 15 40  1  0
 17 41  1  0
 17 42  1  0
 18 43  1  0
 18 44  1  0
 19 45  1  0
 19 46  1  0
 20 47  1  0
 22 48  1  0
 24 49  1  0
 25 50  1  0
 26 51  1  0
 29 52  1  0
M  ISO  8  31   8  32   8  33  14  34  14  35  14  36  14  37  13  38  13
M  ISO  8  39  13  40  13  41  13  42  13  43  13  44  13  45   8  46   8
M  ISO  6  47  14  48  14  49   9  50  14  51  14  52   6
M  END
>  <minimizedAffinity>  (1) 
-5.24414015

>  <minimizedRMSD>  (1) 
1.16760433

$$$$
