
     RDKit          3D

 25 26  0  0  1  0  0  0  0  0999 V2000
   44.4860   35.9010   44.9990 C   0  0  0  0  0  0  0  0  0  0  0  0
   45.0100   35.8000   43.7020 C   0  0  0  0  0  0  0  0  0  0  0  0
   45.7870   34.7180   43.3820 C   0  0  0  0  0  0  0  0  0  0  0  0
   45.9980   33.8040   44.3610 N   0  0  0  0  0  0  0  0  0  0  0  0
   45.4940   33.9110   45.5890 C   0  0  0  0  0  0  0  0  0  0  0  0
   44.7340   34.9570   45.9210 N   0  0  0  0  0  0  0  0  0  0  0  0
   45.7820   32.8900   46.5330 N   0  0  0  0  0  0  0  0  0  0  0  0
   45.0720   32.6870   47.7930 C   0  0  0  0  0  0  0  0  0  0  0  0
   46.1950   32.2910   48.7210 C   0  0  0  0  0  0  0  0  0  0  0  0
   47.3730   31.9350   47.8500 C   0  0  0  0  0  0  0  0  0  0  0  0
   46.7970   31.8590   46.4750 C   0  0  2  0  0  0  0  0  0  0  0  0
   44.6530   36.8910   42.8290 N   0  0  0  0  0  0  0  0  0  0  0  0
   47.7630   32.1520   45.5070 O   0  0  0  0  0  0  0  0  0  0  0  0
   43.8622   36.7671   45.2650 H   0  0  0  0  0  0  0  0  0  0  0  0
   46.2194   34.5965   42.3779 H   0  0  0  0  0  0  0  0  0  0  0  0
   44.5817   33.6123   48.1298 H   0  0  0  0  0  0  0  0  0  0  0  0
   44.2618   31.9454   47.7329 H   0  0  0  0  0  0  0  0  0  0  0  0
   46.4533   33.1306   49.3831 H   0  0  0  0  0  0  0  0  0  0  0  0
   45.9021   31.4420   49.3561 H   0  0  0  0  0  0  0  0  0  0  0  0
   48.1495   32.7122   47.9060 H   0  0  0  0  0  0  0  0  0  0  0  0
   47.8583   30.9970   48.1577 H   0  0  0  0  0  0  0  0  0  0  0  0
   46.4133   30.8654   46.2001 H   0  0  0  0  0  0  0  0  0  0  0  0
   44.9915   36.9042   41.8563 H   0  0  0  0  0  0  0  0  0  0  0  0
   44.0595   37.6570   43.1782 H   0  0  0  0  0  0  0  0  0  0  0  0
   48.6091   32.4086   45.9523 H   0  0  0  0  0  0  0  0  0  0  0  0
  1  6  2  0
  2  1  1  0
  3  2  2  0
  3  4  1  0
  4  5  2  0
  5  6  1  0
  5  7  1  0
  7  8  1  0
  8  9  1  0
 10  9  1  0
 11  7  1  0
 11 10  1  0
 12  2  1  0
 13 11  1  0
  1 14  1  0
  3 15  1  0
  8 16  1  0
  8 17  1  0
  9 18  1  0
  9 19  1  0
 10 20  1  0
 10 21  1  0
 11 22  1  6
 12 23  1  0
 12 24  1  0
 13 25  1  0
M  ISO  8  14  14  15  14  16  13  17  13  18  13  19  13  20  13  21  13
M  ISO  2  22  13  25   3
M  END
>  <minimizedAffinity>  (1) 
-4.62804079

>  <minimizedRMSD>  (1) 
0.229224473

$$$$
