
     RDKit          3D

 25 26  0  0  1  0  0  0  0  0999 V2000
   44.4830   35.7470   45.0000 C   0  0  0  0  0  0  0  0  0  0  0  0
   45.1270   35.7110   43.7430 C   0  0  0  0  0  0  0  0  0  0  0  0
   46.0270   34.7120   43.4790 C   0  0  0  0  0  0  0  0  0  0  0  0
   46.2360   33.8110   44.4710 N   0  0  0  0  0  0  0  0  0  0  0  0
   45.6260   33.8500   45.6550 C   0  0  0  0  0  0  0  0  0  0  0  0
   44.7450   34.8110   45.9400 N   0  0  0  0  0  0  0  0  0  0  0  0
   45.9400   32.8390   46.6070 N   0  0  0  0  0  0  0  0  0  0  0  0
   45.1580   32.5630   47.8100 C   0  0  0  0  0  0  0  0  0  0  0  0
   46.2530   32.2400   48.8130 C   0  0  0  0  0  0  0  0  0  0  0  0
   47.5280   32.0700   48.0390 C   0  0  0  0  0  0  0  0  0  0  0  0
   47.0320   31.9010   46.6160 C   0  0  1  0  0  0  0  0  0  0  0  0
   44.7480   36.7730   42.8440 N   0  0  0  0  0  0  0  0  0  0  0  0
   46.4790   30.1960   46.3940 S   0  0  0  0  0  0  0  0  0  0  0  0
   43.7593   36.5466   45.2167 H   0  0  0  0  0  0  0  0  0  0  0  0
   46.5517   34.6444   42.5146 H   0  0  0  0  0  0  0  0  0  0  0  0
   44.5744   33.4421   48.1208 H   0  0  0  0  0  0  0  0  0  0  0  0
   44.4114   31.7646   47.6872 H   0  0  0  0  0  0  0  0  0  0  0  0
   46.3574   33.0632   49.5351 H   0  0  0  0  0  0  0  0  0  0  0  0
   46.0115   31.3248   49.3735 H   0  0  0  0  0  0  0  0  0  0  0  0
   48.1706   32.9579   48.1326 H   0  0  0  0  0  0  0  0  0  0  0  0
   48.1438   31.2289   48.3902 H   0  0  0  0  0  0  0  0  0  0  0  0
   47.7631   32.0804   45.8139 H   0  0  0  0  0  0  0  0  0  0  0  0
   45.1671   36.8267   41.9046 H   0  0  0  0  0  0  0  0  0  0  0  0
   44.0582   37.4778   43.1413 H   0  0  0  0  0  0  0  0  0  0  0  0
   46.2902   29.6139   47.6197 H   0  0  0  0  0  0  0  0  0  0  0  0
  1  6  2  0
  2  1  1  0
  3  2  2  0
  3  4  1  0
  4  5  2  0
  5  6  1  0
  5  7  1  0
  7 11  1  0
  7  8  1  0
  8  9  1  0
 10  9  1  0
 11 10  1  0
 12  2  1  0
 13 11  1  0
  1 14  1  0
  3 15  1  0
  8 16  1  0
  8 17  1  0
  9 18  1  0
  9 19  1  0
 10 20  1  0
 10 21  1  0
 11 22  1  6
 12 23  1  0
 12 24  1  0
 13 25  1  0
M  ISO  8  14  14  15  14  16  13  17  13  18  13  19  13  20  13  21  13
M  ISO  2  22  13  25  11
M  END
>  <minimizedAffinity>  (1) 
-4.97675228

>  <minimizedRMSD>  (1) 
0.0139916912

$$$$
