
     RDKit          3D

 50 54  0  0  1  0  0  0  0  0999 V2000
   46.5860   30.0850   46.5050 S   0  0  0  0  0  0  0  0  0  0  0  0
   45.7840   30.6120   43.3070 O   0  0  0  0  0  0  0  0  0  0  0  0
   45.0930   30.0620   44.1780 C   0  0  0  0  0  0  0  0  0  0  0  0
   45.0950   29.8190   45.6420 C   0  0  1  0  0  0  0  0  0  0  0  0
   44.5480   28.4150   45.7270 C   0  0  0  0  0  0  0  0  0  0  0  0
   43.2860   28.6390   44.8900 C   0  0  0  0  0  0  0  0  0  0  0  0
   43.8710   29.4090   43.7980 N   0  0  0  0  0  0  0  0  0  0  0  0
   43.1720   29.4100   42.5370 C   0  0  0  0  0  0  0  0  0  0  0  0
   43.8980   29.5440   41.4060 N   0  0  0  0  0  0  0  0  0  0  0  0
   43.3170   29.5550   40.1720 C   0  0  0  0  0  0  0  0  0  0  0  0
   41.9950   29.4320   40.0360 N   0  0  0  0  0  0  0  0  0  0  0  0
   41.2420   29.2960   41.1460 C   0  0  0  0  0  0  0  0  0  0  0  0
   39.8720   29.1670   41.0460 C   0  0  0  0  0  0  0  0  0  0  0  0
   39.0710   29.0260   42.1720 C   0  0  0  0  0  0  0  0  0  0  0  0
   39.6980   29.0190   43.4130 C   0  0  0  0  0  0  0  0  0  0  0  0
   41.0750   29.1450   43.5710 C   0  0  0  0  0  0  0  0  0  0  0  0
   41.8010   29.2820   42.4080 C   0  0  0  0  0  0  0  0  0  0  0  0
   44.5060   35.5960   45.1290 C   0  0  0  0  0  0  0  0  0  0  0  0
   45.1560   35.5830   43.8690 C   0  0  0  0  0  0  0  0  0  0  0  0
   46.0640   34.6110   43.6020 C   0  0  0  0  0  0  0  0  0  0  0  0
   46.2940   33.6970   44.5770 N   0  0  0  0  0  0  0  0  0  0  0  0
   45.6830   33.7140   45.7530 C   0  0  0  0  0  0  0  0  0  0  0  0
   44.7860   34.6560   46.0440 N   0  0  0  0  0  0  0  0  0  0  0  0
   46.0100   32.6950   46.7130 N   0  0  0  0  0  0  0  0  0  0  0  0
   45.2830   32.4480   47.9010 C   0  0  0  0  0  0  0  0  0  0  0  0
   46.3640   32.0900   48.9040 C   0  0  0  0  0  0  0  0  0  0  0  0
   47.6350   31.9680   48.1200 C   0  0  0  0  0  0  0  0  0  0  0  0
   47.1200   31.7710   46.6970 C   0  0  1  0  0  0  0  0  0  0  0  0
   44.8020   36.6240   42.9430 N   0  0  0  0  0  0  0  0  0  0  0  0
   44.4934   30.5704   46.1745 H   0  0  0  0  0  0  0  0  0  0  0  0
   45.2241   27.6745   45.2747 H   0  0  0  0  0  0  0  0  0  0  0  0
   44.3957   28.0124   46.7393 H   0  0  0  0  0  0  0  0  0  0  0  0
   42.8498   27.6919   44.5396 H   0  0  0  0  0  0  0  0  0  0  0  0
   42.4494   29.1229   45.4153 H   0  0  0  0  0  0  0  0  0  0  0  0
   43.9465   29.6667   39.2769 H   0  0  0  0  0  0  0  0  0  0  0  0
   39.4030   29.1760   40.0510 H   0  0  0  0  0  0  0  0  0  0  0  0
   37.9792   28.9235   42.0850 H   0  0  0  0  0  0  0  0  0  0  0  0
   39.0757   28.9086   44.3133 H   0  0  0  0  0  0  0  0  0  0  0  0
   41.5534   29.1358   44.5615 H   0  0  0  0  0  0  0  0  0  0  0  0
   43.7691   36.3802   45.3571 H   0  0  0  0  0  0  0  0  0  0  0  0
   46.5904   34.5663   42.6372 H   0  0  0  0  0  0  0  0  0  0  0  0
   44.7317   33.3451   48.2193 H   0  0  0  0  0  0  0  0  0  0  0  0
   44.5248   31.6594   47.7855 H   0  0  0  0  0  0  0  0  0  0  0  0
   46.4579   32.8810   49.6626 H   0  0  0  0  0  0  0  0  0  0  0  0
   46.1272   31.1552   49.4332 H   0  0  0  0  0  0  0  0  0  0  0  0
   48.2426   32.8814   48.2011 H   0  0  0  0  0  0  0  0  0  0  0  0
   48.2915   31.1568   48.4677 H   0  0  0  0  0  0  0  0  0  0  0  0
   47.8352   31.9460   45.8798 H   0  0  0  0  0  0  0  0  0  0  0  0
   45.2454   36.6596   42.0140 H   0  0  0  0  0  0  0  0  0  0  0  0
   44.1049   37.3343   43.2085 H   0  0  0  0  0  0  0  0  0  0  0  0
  1 28  1  0
  2  3  2  0
  3  4  1  0
  4  5  1  0
  4  1  1  0
  6  5  1  0
  7  3  1  0
  7  6  1  0
  8  7  1  0
  9  8  2  0
 10  9  1  0
 11 10  2  0
 11 12  1  0
 12 17  2  0
 13 12  1  0
 13 14  2  0
 14 15  1  0
 15 16  2  0
 17  8  1  0
 17 16  1  0
 18 23  2  0
 19 18  1  0
 20 19  2  0
 20 21  1  0
 21 22  2  0
 22 23  1  0
 22 24  1  0
 24 25  1  0
 25 26  1  0
 27 26  1  0
 28 24  1  0
 28 27  1  0
 29 19  1  0
  4 30  1  1
  5 31  1  0
  5 32  1  0
  6 33  1  0
  6 34  1  0
 10 35  1  0
 13 36  1  0
 14 37  1  0
 15 38  1  0
 16 39  1  0
 18 40  1  0
 20 41  1  0
 25 42  1  0
 25 43  1  0
 26 44  1  0
 26 45  1  0
 27 46  1  0
 27 47  1  0
 28 48  1  6
 29 49  1  0
 29 50  1  0
M  ISO  8  30  13  31  13  32  13  33  13  34  13  35  14  36  14  37  14
M  ISO  8  38  14  39  14  40  14  41  14  42  13  43  13  44  13  45  13
M  ISO  3  46  13  47  13  48  13
M  END
>  <minimizedAffinity>  (1) 
-6.13973284

>  <minimizedRMSD>  (1) 
0.383201778

$$$$
