
     RDKit          3D

 41 43  0  0  1  0  0  0  0  0999 V2000
   47.1750   34.1080   42.4280 C   0  0  2  0  0  0  0  0  0  0  0  0
   48.5530   34.6840   42.5730 C   0  0  0  0  0  0  0  0  0  0  0  0
   48.8640   35.6750   41.5210 C   0  0  0  0  0  0  0  0  0  0  0  0
   48.6960   35.1150   40.1290 C   0  0  0  0  0  0  0  0  0  0  0  0
   47.4740   34.2560   39.9680 C   0  0  0  0  0  0  0  0  0  0  0  0
   46.5120   34.3680   41.1280 C   0  0  1  0  0  0  0  0  0  0  0  0
   46.2820   34.4770   43.5440 C   0  0  0  0  0  0  0  0  0  0  0  0
   45.5880   35.6550   43.3220 C   0  0  0  0  0  0  0  0  0  0  0  0
   44.6940   36.1330   44.2950 C   0  0  0  0  0  0  0  0  0  0  0  0
   44.5820   35.3440   45.4470 N   0  0  0  0  0  0  0  0  0  0  0  0
   45.2810   34.2040   45.6150 C   0  0  0  0  0  0  0  0  0  0  0  0
   46.1270   33.7830   44.6540 N   0  0  0  0  0  0  0  0  0  0  0  0
   45.4380   33.3320   40.9350 C   0  0  2  0  0  0  0  0  0  0  0  0
   44.7670   33.2600   39.5750 C   0  0  0  0  0  0  0  0  0  0  0  0
   44.0190   33.7370   40.7500 C   0  0  1  0  0  0  0  0  0  0  0  0
   43.0590   32.9000   41.5320 C   0  0  0  0  0  0  0  0  0  0  0  0
   41.6110   33.1870   41.2140 C   0  0  0  0  0  0  0  0  0  0  0  0
   41.1670   34.3940   41.8420 N   0  0  0  0  0  0  0  0  0  0  0  0
   47.3545   33.0232   42.4607 H   0  0  0  0  0  0  0  0  0  0  0  0
   48.6290   35.1751   43.5543 H   0  0  0  0  0  0  0  0  0  0  0  0
   49.2731   33.8579   42.4785 H   0  0  0  0  0  0  0  0  0  0  0  0
   48.1901   36.5365   41.6380 H   0  0  0  0  0  0  0  0  0  0  0  0
   49.9182   35.9662   41.6383 H   0  0  0  0  0  0  0  0  0  0  0  0
   48.6256   35.9553   39.4226 H   0  0  0  0  0  0  0  0  0  0  0  0
   49.5681   34.4741   39.9325 H   0  0  0  0  0  0  0  0  0  0  0  0
   46.9511   34.5602   39.0493 H   0  0  0  0  0  0  0  0  0  0  0  0
   47.8124   33.2103   39.9231 H   0  0  0  0  0  0  0  0  0  0  0  0
   46.1084   35.3911   41.1486 H   0  0  0  0  0  0  0  0  0  0  0  0
   45.7363   36.2147   42.3867 H   0  0  0  0  0  0  0  0  0  0  0  0
   44.1215   37.0627   44.1613 H   0  0  0  0  0  0  0  0  0  0  0  0
   45.1609   33.6166   46.5373 H   0  0  0  0  0  0  0  0  0  0  0  0
   45.9565   32.6379   41.6128 H   0  0  0  0  0  0  0  0  0  0  0  0
   44.5284   32.2831   39.1293 H   0  0  0  0  0  0  0  0  0  0  0  0
   44.9867   33.6611   38.5746 H   0  0  0  0  0  0  0  0  0  0  0  0
   43.3863   34.6293   40.8661 H   0  0  0  0  0  0  0  0  0  0  0  0
   43.2606   31.8413   41.3115 H   0  0  0  0  0  0  0  0  0  0  0  0
   43.2106   33.1414   42.5944 H   0  0  0  0  0  0  0  0  0  0  0  0
   41.4971   33.2877   40.1246 H   0  0  0  0  0  0  0  0  0  0  0  0
   41.0016   32.3544   41.5952 H   0  0  0  0  0  0  0  0  0  0  0  0
   41.2076   34.2836   42.8653 H   0  0  0  0  0  0  0  0  0  0  0  0
   41.7762   35.1738   41.5563 H   0  0  0  0  0  0  0  0  0  0  0  0
  1  2  1  0
  1  7  1  0
  3  2  1  0
  4  3  1  0
  5  4  1  0
  5  6  1  0
  6  1  1  0
  7 12  1  0
  8  7  2  0
  8  9  1  0
  9 10  2  0
 10 11  1  0
 12 11  2  0
 13  6  1  0
 14 15  1  0
 14 13  1  0
 15 13  1  0
 15 16  1  0
 17 16  1  0
 17 18  1  0
  1 19  1  1
  2 20  1  0
  2 21  1  0
  3 22  1  0
  3 23  1  0
  4 24  1  0
  4 25  1  0
  5 26  1  0
  5 27  1  0
  6 28  1  1
  8 29  1  0
  9 30  1  0
 11 31  1  0
 13 32  1  1
 14 33  1  0
 14 34  1  0
 15 35  1  6
 16 36  1  0
 16 37  1  0
 17 38  1  0
 17 39  1  0
 18 40  1  0
 18 41  1  0
M  ISO  8  19  13  20  13  21  13  22  13  23  13  24  13  25  13  26  13
M  ISO  8  27  13  28  13  29  14  30  14  31  14  32  13  33  13  34  13
M  ISO  7  35  13  36   8  37   8  38   8  39   8  40   5  41   5
M  END
>  <minimizedAffinity>  (1) 
-5.47363853

>  <minimizedRMSD>  (1) 
0.103685461

$$$$
