
     RDKit          3D

 40 42  0  0  1  0  0  0  0  0999 V2000
   47.1920   34.1190   42.4280 C   0  0  2  0  0  0  0  0  0  0  0  0
   48.5670   34.6940   42.5740 C   0  0  0  0  0  0  0  0  0  0  0  0
   48.8730   35.6920   41.5240 C   0  0  0  0  0  0  0  0  0  0  0  0
   48.7150   35.1100   40.1330 C   0  0  0  0  0  0  0  0  0  0  0  0
   47.4840   34.2820   39.9660 C   0  0  0  0  0  0  0  0  0  0  0  0
   46.5270   34.3710   41.1260 C   0  0  1  0  0  0  0  0  0  0  0  0
   46.2950   34.4810   43.5440 C   0  0  0  0  0  0  0  0  0  0  0  0
   45.5970   35.6550   43.3190 C   0  0  0  0  0  0  0  0  0  0  0  0
   44.6970   36.1260   44.2900 C   0  0  0  0  0  0  0  0  0  0  0  0
   44.5840   35.3380   45.4410 N   0  0  0  0  0  0  0  0  0  0  0  0
   45.2870   34.2070   45.6080 C   0  0  0  0  0  0  0  0  0  0  0  0
   46.1400   33.7870   44.6530 N   0  0  0  0  0  0  0  0  0  0  0  0
   45.4690   33.3180   40.9390 C   0  0  2  0  0  0  0  0  0  0  0  0
   44.7960   33.2260   39.5830 C   0  0  0  0  0  0  0  0  0  0  0  0
   44.0470   33.7080   40.7550 C   0  0  1  0  0  0  0  0  0  0  0  0
   43.0910   32.8710   41.5410 C   0  0  0  0  0  0  0  0  0  0  0  0
   41.6440   33.1190   41.1810 C   0  0  0  0  0  0  0  0  0  0  0  0
   41.1420   34.1980   41.9020 O   0  0  0  0  0  0  0  0  0  0  0  0
   47.3784   33.0354   42.4612 H   0  0  0  0  0  0  0  0  0  0  0  0
   48.6445   35.1803   43.5576 H   0  0  0  0  0  0  0  0  0  0  0  0
   49.2887   33.8697   42.4755 H   0  0  0  0  0  0  0  0  0  0  0  0
   48.1877   36.5455   41.6331 H   0  0  0  0  0  0  0  0  0  0  0  0
   49.9195   36.0080   41.6463 H   0  0  0  0  0  0  0  0  0  0  0  0
   48.6762   35.9395   39.4116 H   0  0  0  0  0  0  0  0  0  0  0  0
   49.5751   34.4459   39.9624 H   0  0  0  0  0  0  0  0  0  0  0  0
   46.9608   34.6182   39.0587 H   0  0  0  0  0  0  0  0  0  0  0  0
   47.8105   33.2336   39.9009 H   0  0  0  0  0  0  0  0  0  0  0  0
   46.1103   35.3889   41.1443 H   0  0  0  0  0  0  0  0  0  0  0  0
   45.7461   36.2164   42.3849 H   0  0  0  0  0  0  0  0  0  0  0  0
   44.1197   37.0525   44.1544 H   0  0  0  0  0  0  0  0  0  0  0  0
   45.1662   33.6193   46.5300 H   0  0  0  0  0  0  0  0  0  0  0  0
   45.9986   32.6332   41.6176 H   0  0  0  0  0  0  0  0  0  0  0  0
   44.5653   32.2424   39.1479 H   0  0  0  0  0  0  0  0  0  0  0  0
   45.0093   33.6189   38.5779 H   0  0  0  0  0  0  0  0  0  0  0  0
   43.4088   34.5967   40.8680 H   0  0  0  0  0  0  0  0  0  0  0  0
   43.3204   31.8113   41.3553 H   0  0  0  0  0  0  0  0  0  0  0  0
   43.2146   33.1423   42.5998 H   0  0  0  0  0  0  0  0  0  0  0  0
   41.5705   33.3364   40.1052 H   0  0  0  0  0  0  0  0  0  0  0  0
   41.0568   32.2219   41.4268 H   0  0  0  0  0  0  0  0  0  0  0  0
   41.2270   34.0154   42.8713 H   0  0  0  0  0  0  0  0  0  0  0  0
  1  2  1  0
  1  7  1  0
  3  2  1  0
  4  3  1  0
  5  4  1  0
  5  6  1  0
  6  1  1  0
  7 12  1  0
  8  7  2  0
  8  9  1  0
  9 10  2  0
 10 11  1  0
 12 11  2  0
 13  6  1  0
 14 15  1  0
 14 13  1  0
 15 13  1  0
 15 16  1  0
 17 16  1  0
 17 18  1  0
  1 19  1  1
  2 20  1  0
  2 21  1  0
  3 22  1  0
  3 23  1  0
  4 24  1  0
  4 25  1  0
  5 26  1  0
  5 27  1  0
  6 28  1  1
  8 29  1  0
  9 30  1  0
 11 31  1  0
 13 32  1  1
 14 33  1  0
 14 34  1  0
 15 35  1  6
 16 36  1  0
 16 37  1  0
 17 38  1  0
 17 39  1  0
 18 40  1  0
M  ISO  8  19  13  20  13  21  13  22  13  23  13  24  13  25  13  26  13
M  ISO  8  27  13  28  13  29  14  30  14  31  14  32  13  33  13  34  13
M  ISO  6  35  13  36   8  37   8  38   8  39   8  40   3
M  END
>  <minimizedAffinity>  (1) 
-5.44857264

>  <minimizedRMSD>  (1) 
0.135794178

$$$$
