
     RDKit          3D

 42 45  0  0  1  0  0  0  0  0999 V2000
   44.5130   35.5080   45.1340 C   0  0  0  0  0  0  0  0  0  0  0  0
   45.1730   35.5000   43.8910 C   0  0  0  0  0  0  0  0  0  0  0  0
   46.0970   34.5400   43.6390 C   0  0  0  0  0  0  0  0  0  0  0  0
   46.3280   33.6370   44.6220 N   0  0  0  0  0  0  0  0  0  0  0  0
   45.7040   33.6510   45.7910 C   0  0  0  0  0  0  0  0  0  0  0  0
   44.7940   34.5800   46.0610 N   0  0  0  0  0  0  0  0  0  0  0  0
   46.0340   32.6420   46.7620 N   0  0  0  0  0  0  0  0  0  0  0  0
   45.2960   32.3910   47.9430 C   0  0  0  0  0  0  0  0  0  0  0  0
   46.3740   32.0690   48.9630 C   0  0  0  0  0  0  0  0  0  0  0  0
   47.6550   31.9540   48.1930 C   0  0  0  0  0  0  0  0  0  0  0  0
   47.1670   31.7390   46.7600 C   0  0  1  0  0  0  0  0  0  0  0  0
   44.8140   36.5280   42.9540 N   0  0  0  0  0  0  0  0  0  0  0  0
   46.6680   30.0460   46.5820 S   0  0  0  0  0  0  0  0  0  0  0  0
   45.5950   30.5210   43.4510 O   0  0  0  0  0  0  0  0  0  0  0  0
   44.9900   29.9750   44.3880 C   0  0  0  0  0  0  0  0  0  0  0  0
   45.1150   29.7440   45.8560 C   0  0  1  0  0  0  0  0  0  0  0  0
   44.5930   28.3390   45.9820 C   0  0  0  0  0  0  0  0  0  0  0  0
   43.2460   28.5490   45.2520 C   0  0  0  0  0  0  0  0  0  0  0  0
   43.7500   29.3150   44.0910 N   0  0  0  0  0  0  0  0  0  0  0  0
   42.9290   29.2600   42.8960 C   0  0  0  0  0  0  0  0  0  0  0  0
   43.2010   28.4480   41.8120 C   0  0  0  0  0  0  0  0  0  0  0  0
   41.7380   28.9190   40.6960 S   0  0  0  0  0  0  0  0  0  0  0  0
   41.0800   30.1340   41.9810 C   0  0  0  0  0  0  0  0  0  0  0  0
   41.8750   30.0700   42.9280 N   0  0  0  0  0  0  0  0  0  0  0  0
   43.7606   36.2816   45.3471 H   0  0  0  0  0  0  0  0  0  0  0  0
   46.6344   34.4965   42.6802 H   0  0  0  0  0  0  0  0  0  0  0  0
   44.7200   33.2783   48.2444 H   0  0  0  0  0  0  0  0  0  0  0  0
   44.5568   31.5847   47.8270 H   0  0  0  0  0  0  0  0  0  0  0  0
   46.4475   32.8751   49.7079 H   0  0  0  0  0  0  0  0  0  0  0  0
   46.1476   31.1400   49.5068 H   0  0  0  0  0  0  0  0  0  0  0  0
   48.2513   32.8747   48.2751 H   0  0  0  0  0  0  0  0  0  0  0  0
   48.3120   31.1498   48.5559 H   0  0  0  0  0  0  0  0  0  0  0  0
   47.8869   31.9233   45.9490 H   0  0  0  0  0  0  0  0  0  0  0  0
   45.2688   36.5649   42.0306 H   0  0  0  0  0  0  0  0  0  0  0  0
   44.1017   37.2282   43.2056 H   0  0  0  0  0  0  0  0  0  0  0  0
   44.5524   30.4827   46.4457 H   0  0  0  0  0  0  0  0  0  0  0  0
   45.2356   27.6075   45.4702 H   0  0  0  0  0  0  0  0  0  0  0  0
   44.5328   27.9342   47.0030 H   0  0  0  0  0  0  0  0  0  0  0  0
   42.7830   27.5972   44.9525 H   0  0  0  0  0  0  0  0  0  0  0  0
   42.4523   29.0341   45.8392 H   0  0  0  0  0  0  0  0  0  0  0  0
   44.0236   27.7372   41.6443 H   0  0  0  0  0  0  0  0  0  0  0  0
   40.1819   30.7645   41.9050 H   0  0  0  0  0  0  0  0  0  0  0  0
  1  6  2  0
  2  1  1  0
  3  2  2  0
  3  4  1  0
  4  5  2  0
  5  6  1  0
  5  7  1  0
  7  8  1  0
  8  9  1  0
 10  9  1  0
 11  7  1  0
 11 10  1  0
 12  2  1  0
 13 11  1  0
 14 15  2  0
 15 16  1  0
 16 17  1  0
 16 13  1  0
 18 17  1  0
 19 15  1  0
 19 18  1  0
 20 24  1  0
 20 19  1  0
 21 20  2  0
 22 21  1  0
 22 23  1  0
 23 24  2  0
  1 25  1  0
  3 26  1  0
  8 27  1  0
  8 28  1  0
  9 29  1  0
  9 30  1  0
 10 31  1  0
 10 32  1  0
 11 33  1  6
 12 34  1  0
 12 35  1  0
 16 36  1  1
 17 37  1  0
 17 38  1  0
 18 39  1  0
 18 40  1  0
 21 41  1  0
 23 42  1  0
M  ISO  8  25  14  26  14  27  13  28  13  29  13  30  13  31  13  32  13
M  ISO  8  33  13  36  13  37  13  38  13  39  13  40  13  41  14  42  14
M  END
>  <minimizedAffinity>  (1) 
-5.26378059

>  <minimizedRMSD>  (1) 
0.526495457

$$$$
