
     RDKit          3D

 34 36  0  0  1  0  0  0  0  0999 V2000
   49.3330   33.2230   41.4840 N   0  0  0  0  0  0  0  0  0  0  0  0
   50.6680   33.1230   42.0530 C   0  0  0  0  0  0  0  0  0  0  0  0
   51.3330   31.8090   41.7670 C   0  0  0  0  0  0  0  0  0  0  0  0
   50.5970   30.7280   42.5430 C   0  0  0  0  0  0  0  0  0  0  0  0
   49.1050   30.9880   42.5330 C   0  0  0  0  0  0  0  0  0  0  0  0
   48.7700   31.9060   41.3850 C   0  0  2  0  0  0  0  0  0  0  0  0
   47.1920   34.5510   42.0160 C   0  0  1  0  0  0  0  0  0  0  0  0
   48.3050   35.4610   41.7080 C   0  0  0  0  0  0  0  0  0  0  0  0
   48.6030   34.1300   42.2980 C   0  0  2  0  0  0  0  0  0  0  0  0
   45.5140   36.0270   43.1670 C   0  0  0  0  0  0  0  0  0  0  0  0
   46.2890   34.8490   43.1410 C   0  0  0  0  0  0  0  0  0  0  0  0
   46.1590   33.9710   44.2280 C   0  0  0  0  0  0  0  0  0  0  0  0
   45.3060   34.3000   45.2300 N   0  0  0  0  0  0  0  0  0  0  0  0
   44.5770   35.4350   45.2240 C   0  0  0  0  0  0  0  0  0  0  0  0
   44.6760   36.3130   44.1880 N   0  0  0  0  0  0  0  0  0  0  0  0
   49.0530   31.2430   40.1380 N   0  0  0  0  0  0  0  0  0  0  0  0
   51.2887   33.9282   41.6330 H   0  0  0  0  0  0  0  0  0  0  0  0
   50.5662   33.2082   43.1450 H   0  0  0  0  0  0  0  0  0  0  0  0
   51.2842   31.5932   40.6895 H   0  0  0  0  0  0  0  0  0  0  0  0
   52.3899   31.8429   42.0701 H   0  0  0  0  0  0  0  0  0  0  0  0
   50.7969   29.7506   42.0797 H   0  0  0  0  0  0  0  0  0  0  0  0
   50.9515   30.7347   43.5843 H   0  0  0  0  0  0  0  0  0  0  0  0
   48.5664   30.0365   42.4125 H   0  0  0  0  0  0  0  0  0  0  0  0
   48.8051   31.4574   43.4815 H   0  0  0  0  0  0  0  0  0  0  0  0
   47.6898   32.1084   41.4321 H   0  0  0  0  0  0  0  0  0  0  0  0
   46.3523   34.1328   41.4415 H   0  0  0  0  0  0  0  0  0  0  0  0
   48.5697   35.6670   40.6604 H   0  0  0  0  0  0  0  0  0  0  0  0
   48.5518   36.4983   41.9783 H   0  0  0  0  0  0  0  0  0  0  0  0
   49.0883   33.7141   43.1933 H   0  0  0  0  0  0  0  0  0  0  0  0
   45.5942   36.7357   42.3295 H   0  0  0  0  0  0  0  0  0  0  0  0
   46.7367   33.0357   44.2666 H   0  0  0  0  0  0  0  0  0  0  0  0
   43.8980   35.6527   46.0616 H   0  0  0  0  0  0  0  0  0  0  0  0
   49.4505   30.3117   40.3268 H   0  0  0  0  0  0  0  0  0  0  0  0
   48.1820   31.1414   39.5978 H   0  0  0  0  0  0  0  0  0  0  0  0
  1  2  1  0
  1  9  1  0
  3  2  1  0
  3  4  1  0
  5  4  1  0
  6  1  1  0
  6  5  1  0
  7  9  1  0
  7 11  1  0
  8  7  1  0
  8  9  1  0
 10 15  2  0
 11 10  1  0
 11 12  2  0
 12 13  1  0
 14 13  2  0
 15 14  1  0
 16  6  1  0
  2 17  1  0
  2 18  1  0
  3 19  1  0
  3 20  1  0
  4 21  1  0
  4 22  1  0
  5 23  1  0
  5 24  1  0
  6 25  1  6
  7 26  1  6
  8 27  1  0
  8 28  1  0
  9 29  1  1
 10 30  1  0
 12 31  1  0
 14 32  1  0
 16 33  1  0
 16 34  1  0
M  ISO  8  17  13  18  13  19  13  20  13  21  13  22  13  23  13  24  13
M  ISO  8  25  13  26  13  27  13  28  13  29  13  30  14  31  14  32  14
M  ISO  2  33   5  34   5
M  END
>  <minimizedAffinity>  (1) 
-4.59110594

>  <minimizedRMSD>  (1) 
0.0295539517

$$$$
