
     RDKit          3D

 47 51  0  0  1  0  0  0  0  0999 V2000
   49.4470   33.3830   41.4190 N   0  0  0  0  0  0  0  0  0  0  0  0
   50.7130   33.1420   42.0630 C   0  0  0  0  0  0  0  0  0  0  0  0
   51.3240   31.8140   41.6870 C   0  0  0  0  0  0  0  0  0  0  0  0
   50.4560   30.7040   42.2310 C   0  0  0  0  0  0  0  0  0  0  0  0
   48.9850   31.0710   42.1360 C   0  0  0  0  0  0  0  0  0  0  0  0
   48.8090   32.1450   41.0820 C   0  0  2  0  0  0  0  0  0  0  0  0
   47.2860   34.6830   41.9840 C   0  0  1  0  0  0  0  0  0  0  0  0
   48.4220   35.6090   41.7740 C   0  0  0  0  0  0  0  0  0  0  0  0
   48.6790   34.2360   42.2490 C   0  0  2  0  0  0  0  0  0  0  0  0
   45.5400   36.0550   43.1550 C   0  0  0  0  0  0  0  0  0  0  0  0
   46.3570   34.9100   43.1090 C   0  0  0  0  0  0  0  0  0  0  0  0
   46.2540   33.9900   44.1500 C   0  0  0  0  0  0  0  0  0  0  0  0
   45.3710   34.2510   45.1490 N   0  0  0  0  0  0  0  0  0  0  0  0
   44.5990   35.3470   45.1780 C   0  0  0  0  0  0  0  0  0  0  0  0
   44.6800   36.2700   44.1650 N   0  0  0  0  0  0  0  0  0  0  0  0
   49.1680   31.6120   39.8050 N   0  0  0  0  0  0  0  0  0  0  0  0
   47.9840   33.0180   38.0780 C   0  0  0  0  0  0  0  0  0  0  0  0
   48.9170   32.0510   38.4740 C   0  0  0  0  0  0  0  0  0  0  0  0
   49.6530   31.4760   37.4600 C   0  0  0  0  0  0  0  0  0  0  0  0
   49.5350   31.7800   36.1180 C   0  0  0  0  0  0  0  0  0  0  0  0
   50.1360   31.3520   34.9930 N   0  0  0  0  0  0  0  0  0  0  0  0
   49.6210   32.0030   33.9340 C   0  0  0  0  0  0  0  0  0  0  0  0
   48.6730   32.8630   34.4090 N   0  0  0  0  0  0  0  0  0  0  0  0
   48.6140   32.7310   35.7470 C   0  0  0  0  0  0  0  0  0  0  0  0
   47.8650   33.3220   36.7420 C   0  0  0  0  0  0  0  0  0  0  0  0
   51.4104   33.9425   41.7752 H   0  0  0  0  0  0  0  0  0  0  0  0
   50.5317   33.1248   43.1478 H   0  0  0  0  0  0  0  0  0  0  0  0
   51.3844   31.7323   40.5917 H   0  0  0  0  0  0  0  0  0  0  0  0
   52.3364   31.7366   42.1102 H   0  0  0  0  0  0  0  0  0  0  0  0
   50.6369   29.7876   41.6501 H   0  0  0  0  0  0  0  0  0  0  0  0
   50.7111   30.5445   43.2891 H   0  0  0  0  0  0  0  0  0  0  0  0
   48.4008   30.1817   41.8569 H   0  0  0  0  0  0  0  0  0  0  0  0
   48.6329   31.4451   43.1086 H   0  0  0  0  0  0  0  0  0  0  0  0
   47.7476   32.4295   41.0329 H   0  0  0  0  0  0  0  0  0  0  0  0
   46.4544   34.3128   41.3664 H   0  0  0  0  0  0  0  0  0  0  0  0
   48.7116   35.9000   40.7535 H   0  0  0  0  0  0  0  0  0  0  0  0
   48.6791   36.6156   42.1356 H   0  0  0  0  0  0  0  0  0  0  0  0
   49.1331   33.7339   43.1160 H   0  0  0  0  0  0  0  0  0  0  0  0
   45.6072   36.7936   42.3426 H   0  0  0  0  0  0  0  0  0  0  0  0
   46.8698   33.0786   44.1628 H   0  0  0  0  0  0  0  0  0  0  0  0
   43.9011   35.5065   46.0131 H   0  0  0  0  0  0  0  0  0  0  0  0
   49.7147   30.7407   39.8581 H   0  0  0  0  0  0  0  0  0  0  0  0
   47.3560   33.5265   38.8244 H   0  0  0  0  0  0  0  0  0  0  0  0
   50.3939   30.7137   37.7426 H   0  0  0  0  0  0  0  0  0  0  0  0
   50.8758   30.6367   34.9491 H   0  0  0  0  0  0  0  0  0  0  0  0
   49.9100   31.8675   32.8813 H   0  0  0  0  0  0  0  0  0  0  0  0
   47.1269   34.0834   36.4495 H   0  0  0  0  0  0  0  0  0  0  0  0
  1  2  1  0
  1  9  1  0
  3  2  1  0
  3  4  1  0
  5  4  1  0
  6  1  1  0
  6  5  1  0
  7  9  1  0
  7 11  1  0
  8  7  1  0
  8  9  1  0
 10 15  2  0
 11 10  1  0
 11 12  2  0
 12 13  1  0
 13 14  2  0
 15 14  1  0
 16  6  1  0
 17 18  2  0
 18 16  1  0
 19 18  1  0
 20 19  2  0
 21 20  1  0
 22 23  2  0
 22 21  1  0
 23 24  1  0
 24 20  1  0
 24 25  2  0
 25 17  1  0
  2 26  1  0
  2 27  1  0
  3 28  1  0
  3 29  1  0
  4 30  1  0
  4 31  1  0
  5 32  1  0
  5 33  1  0
  6 34  1  6
  7 35  1  6
  8 36  1  0
  8 37  1  0
  9 38  1  1
 10 39  1  0
 12 40  1  0
 14 41  1  0
 16 42  1  0
 17 43  1  0
 19 44  1  0
 21 45  1  0
 22 46  1  0
 25 47  1  0
M  ISO  8  26  13  27  13  28  13  29  13  30  13  31  13  32  13  33  13
M  ISO  8  34  13  35  13  36  13  37  13  38  13  39  14  40  14  41  14
M  ISO  5  43  14  44  14  45   9  46  14  47  14
M  END
>  <minimizedAffinity>  (1) 
-5.85006142

>  <minimizedRMSD>  (1) 
0.43170315

$$$$
