
     RDKit          3D

 23 24  0  0  0  0  0  0  0  0999 V2000
   44.0060   34.9290   41.2130 S   0  0  0  0  0  0  0  0  0  0  0  0
   42.4330   32.1720   41.5950 Cl  0  0  0  0  0  0  0  0  0  0  0  0
   41.5160   33.6080   41.2010 C   0  0  0  0  0  0  0  0  0  0  0  0
   42.2530   34.7530   41.0500 C   0  0  0  0  0  0  0  0  0  0  0  0
   41.5840   35.9310   40.7370 C   0  0  0  0  0  0  0  0  0  0  0  0
   40.1990   35.9170   40.5840 C   0  0  0  0  0  0  0  0  0  0  0  0
   39.4520   34.7540   40.7350 C   0  0  0  0  0  0  0  0  0  0  0  0
   40.1420   33.5900   41.0500 C   0  0  0  0  0  0  0  0  0  0  0  0
   39.2900   32.0780   41.2600 Cl  0  0  0  0  0  0  0  0  0  0  0  0
   44.6040   34.6000   42.8620 C   0  0  0  0  0  0  0  0  0  0  0  0
   45.4940   33.5050   42.9580 C   0  0  0  0  0  0  0  0  0  0  0  0
   46.0020   33.1950   44.2380 C   0  0  0  0  0  0  0  0  0  0  0  0
   45.6180   33.9500   45.2920 N   0  0  0  0  0  0  0  0  0  0  0  0
   44.7600   34.9950   45.1610 C   0  0  0  0  0  0  0  0  0  0  0  0
   44.2510   35.3250   43.9470 N   0  0  0  0  0  0  0  0  0  0  0  0
   44.4020   35.7400   46.3010 N   0  0  0  0  0  0  0  0  0  0  0  0
   42.1449   36.8688   40.6108 H   0  0  0  0  0  0  0  0  0  0  0  0
   39.6806   36.8550   40.3361 H   0  0  0  0  0  0  0  0  0  0  0  0
   38.3591   34.7555   40.6101 H   0  0  0  0  0  0  0  0  0  0  0  0
   45.7786   32.9190   42.0716 H   0  0  0  0  0  0  0  0  0  0  0  0
   46.6978   32.3542   44.3756 H   0  0  0  0  0  0  0  0  0  0  0  0
   43.7523   36.5345   46.2139 H   0  0  0  0  0  0  0  0  0  0  0  0
   44.7899   35.4905   47.2220 H   0  0  0  0  0  0  0  0  0  0  0  0
  1 10  1  0
  3  2  1  0
  4  3  2  0
  4  1  1  0
  5  4  1  0
  6  7  1  0
  6  5  2  0
  7  8  2  0
  8  3  1  0
  8  9  1  0
 10 11  2  0
 10 15  1  0
 11 12  1  0
 12 13  2  0
 14 13  1  0
 14 16  1  0
 15 14  2  0
  5 17  1  0
  6 18  1  0
  7 19  1  0
 11 20  1  0
 12 21  1  0
 16 22  1  0
 16 23  1  0
M  ISO  5  17  14  18  14  19  14  20  14  21  14
M  END
>  <minimizedAffinity>  (1) 
-5.02563143

>  <minimizedRMSD>  (1) 
0.584946752

$$$$
