
     RDKit          3D

 36 38  0  0  0  0  0  0  0  0999 V2000
   44.9870   34.4620   42.3070 C   0  0  0  0  0  0  0  0  0  0  0  0
   45.9590   34.4550   41.3040 C   0  0  0  0  0  0  0  0  0  0  0  0
   47.1790   33.8050   41.5630 C   0  0  0  0  0  0  0  0  0  0  0  0
   47.3430   33.2220   42.7700 N   0  0  0  0  0  0  0  0  0  0  0  0
   46.3690   33.2490   43.7260 C   0  0  0  0  0  0  0  0  0  0  0  0
   45.1870   33.8620   43.5150 N   0  0  0  0  0  0  0  0  0  0  0  0
   46.5730   32.6330   44.9680 N   0  0  0  0  0  0  0  0  0  0  0  0
   46.5300   33.3570   46.2370 C   0  0  0  0  0  0  0  0  0  0  0  0
   45.4170   32.6570   47.0260 C   0  0  0  0  0  0  0  0  0  0  0  0
   46.0270   31.3550   47.4880 C   0  0  0  0  0  0  0  0  0  0  0  0
   47.0910   30.8560   46.5380 C   0  0  0  0  0  0  0  0  0  0  0  0
   46.8460   31.2130   45.1060 C   0  0  0  0  0  0  0  0  0  0  0  0
   43.4630   35.3150   41.8880 S   0  0  0  0  0  0  0  0  0  0  0  0
   40.5740   36.2530   40.8960 Cl  0  0  0  0  0  0  0  0  0  0  0  0
   40.9470   34.5430   40.8890 C   0  0  0  0  0  0  0  0  0  0  0  0
   42.1890   34.2230   41.3230 C   0  0  0  0  0  0  0  0  0  0  0  0
   42.5580   32.8720   41.3450 C   0  0  0  0  0  0  0  0  0  0  0  0
   41.6310   31.9080   40.9200 C   0  0  0  0  0  0  0  0  0  0  0  0
   40.3710   32.2440   40.4810 C   0  0  0  0  0  0  0  0  0  0  0  0
   40.0410   33.6000   40.4740 C   0  0  0  0  0  0  0  0  0  0  0  0
   38.4510   34.1340   39.9300 Cl  0  0  0  0  0  0  0  0  0  0  0  0
   45.7751   34.9452   40.3366 H   0  0  0  0  0  0  0  0  0  0  0  0
   47.9757   33.7725   40.8052 H   0  0  0  0  0  0  0  0  0  0  0  0
   47.4920   33.2786   46.7646 H   0  0  0  0  0  0  0  0  0  0  0  0
   46.3427   34.4328   46.1045 H   0  0  0  0  0  0  0  0  0  0  0  0
   45.1106   33.2680   47.8878 H   0  0  0  0  0  0  0  0  0  0  0  0
   44.5150   32.4982   46.4168 H   0  0  0  0  0  0  0  0  0  0  0  0
   46.4797   31.5075   48.4789 H   0  0  0  0  0  0  0  0  0  0  0  0
   45.2268   30.6011   47.5260 H   0  0  0  0  0  0  0  0  0  0  0  0
   48.0558   31.2882   46.8418 H   0  0  0  0  0  0  0  0  0  0  0  0
   47.0804   29.7577   46.5978 H   0  0  0  0  0  0  0  0  0  0  0  0
   45.9823   30.6419   44.7346 H   0  0  0  0  0  0  0  0  0  0  0  0
   47.7460   30.9686   44.5227 H   0  0  0  0  0  0  0  0  0  0  0  0
   43.5584   32.5715   41.6899 H   0  0  0  0  0  0  0  0  0  0  0  0
   41.9217   30.8473   40.9385 H   0  0  0  0  0  0  0  0  0  0  0  0
   39.6550   31.4773   40.1500 H   0  0  0  0  0  0  0  0  0  0  0  0
  1  6  2  0
  2  3  2  0
  2  1  1  0
  3  4  1  0
  4  5  2  0
  5  7  1  0
  6  5  1  0
  7 12  1  0
  7  8  1  0
  8  9  1  0
  9 10  1  0
 11 10  1  0
 12 11  1  0
 13  1  1  0
 15 14  1  0
 15 16  2  0
 16 17  1  0
 16 13  1  0
 18 17  2  0
 19 18  1  0
 20 19  2  0
 20 15  1  0
 21 20  1  0
  2 22  1  0
  3 23  1  0
  8 24  1  0
  8 25  1  0
  9 26  1  0
  9 27  1  0
 10 28  1  0
 10 29  1  0
 11 30  1  0
 11 31  1  0
 12 32  1  0
 12 33  1  0
 17 34  1  0
 18 35  1  0
 19 36  1  0
M  ISO  8  22  14  23  14  24  13  25  13  26  13  27  13  28  13  29  13
M  ISO  7  30  13  31  13  32  13  33  13  34  14  35  14  36  14
M  END
>  <minimizedAffinity>  (1) 
-5.24616957

>  <minimizedRMSD>  (1) 
4.2959857

$$$$
