
     RDKit          3D

 24 25  0  0  0  0  0  0  0  0999 V2000
   41.3590   31.4590   41.1560 Cl  0  0  0  0  0  0  0  0  0  0  0  0
   40.8080   33.0130   40.5570 C   0  0  0  0  0  0  0  0  0  0  0  0
   41.8030   33.8880   40.2030 C   0  0  0  0  0  0  0  0  0  0  0  0
   41.4250   35.1350   39.7230 C   0  0  0  0  0  0  0  0  0  0  0  0
   40.0780   35.4550   39.6150 C   0  0  0  0  0  0  0  0  0  0  0  0
   39.0680   34.5650   39.9740 C   0  0  0  0  0  0  0  0  0  0  0  0
   39.4780   33.3300   40.4500 C   0  0  0  0  0  0  0  0  0  0  0  0
   38.2850   32.1290   40.9320 Cl  0  0  0  0  0  0  0  0  0  0  0  0
   43.5440   33.6320   40.2820 S   0  0  0  0  0  0  0  0  0  0  0  0
   44.2100   33.8030   41.9310 C   0  0  0  0  0  0  0  0  0  0  0  0
   44.8180   32.6560   42.4640 C   0  0  0  0  0  0  0  0  0  0  0  0
   45.3640   32.7210   43.7600 C   0  0  0  0  0  0  0  0  0  0  0  0
   45.2720   33.8970   44.4260 N   0  0  0  0  0  0  0  0  0  0  0  0
   44.6830   34.9760   43.8820 C   0  0  0  0  0  0  0  0  0  0  0  0
   44.1460   34.9500   42.6370 N   0  0  0  0  0  0  0  0  0  0  0  0
   44.6480   36.2070   44.7180 C   0  0  0  0  0  0  0  0  0  0  0  0
   42.1909   35.8678   39.4289 H   0  0  0  0  0  0  0  0  0  0  0  0
   39.7982   36.4475   39.2320 H   0  0  0  0  0  0  0  0  0  0  0  0
   38.0037   34.8282   39.8845 H   0  0  0  0  0  0  0  0  0  0  0  0
   44.8670   31.7246   41.8807 H   0  0  0  0  0  0  0  0  0  0  0  0
   45.8493   31.8458   44.2167 H   0  0  0  0  0  0  0  0  0  0  0  0
   44.6559   35.9280   45.7820 H   0  0  0  0  0  0  0  0  0  0  0  0
   45.5289   36.8269   44.4949 H   0  0  0  0  0  0  0  0  0  0  0  0
   43.7333   36.7758   44.4949 H   0  0  0  0  0  0  0  0  0  0  0  0
  2  1  1  0
  3  9  1  0
  3  2  2  0
  4  3  1  0
  5  4  2  0
  5  6  1  0
  6  7  2  0
  7  2  1  0
  7  8  1  0
  9 10  1  0
 10 11  2  0
 10 15  1  0
 11 12  1  0
 12 13  2  0
 14 13  1  0
 14 16  1  0
 15 14  2  0
  4 17  1  0
  5 18  1  0
  6 19  1  0
 11 20  1  0
 12 21  1  0
 16 22  1  0
 16 23  1  0
 16 24  1  0
M  ISO  8  17  14  18  14  19  14  20  14  21  14  22   8  23   8  24   8
M  END
>  <minimizedAffinity>  (1) 
-4.5265646

>  <minimizedRMSD>  (1) 
0.983497202

$$$$
