
     RDKit          3D

 31 34  0  0  0  0  0  0  0  0999 V2000
   47.2060   31.3850   45.1580 C   0  0  0  0  0  0  0  0  0  0  0  0
   46.8550   32.7180   45.1420 C   0  0  0  0  0  0  0  0  0  0  0  0
   46.2500   33.3240   46.2210 C   0  0  0  0  0  0  0  0  0  0  0  0
   45.9690   32.5990   47.3780 C   0  0  0  0  0  0  0  0  0  0  0  0
   45.4050   32.8550   48.5850 N   0  0  0  0  0  0  0  0  0  0  0  0
   45.4090   31.7160   49.3200 C   0  0  0  0  0  0  0  0  0  0  0  0
   45.9780   30.7670   48.5540 N   0  0  0  0  0  0  0  0  0  0  0  0
   46.3360   31.2750   47.3490 C   0  0  0  0  0  0  0  0  0  0  0  0
   46.9440   30.6230   46.2920 C   0  0  0  0  0  0  0  0  0  0  0  0
   46.4840   35.1910   42.4520 C   0  0  0  0  0  0  0  0  0  0  0  0
   47.6800   35.0110   41.7190 C   0  0  0  0  0  0  0  0  0  0  0  0
   48.5950   34.0470   42.1550 C   0  0  0  0  0  0  0  0  0  0  0  0
   48.2630   33.3410   43.2730 N   0  0  0  0  0  0  0  0  0  0  0  0
   47.1240   33.5270   43.9540 C   0  0  0  0  0  0  0  0  0  0  0  0
   46.2200   34.4490   43.5580 N   0  0  0  0  0  0  0  0  0  0  0  0
   47.2770   29.2190   46.3960 C   0  0  0  0  0  0  0  0  0  0  0  0
   48.5180   28.7740   46.7480 C   0  0  0  0  0  0  0  0  0  0  0  0
   48.8350   27.4370   46.8470 C   0  0  0  0  0  0  0  0  0  0  0  0
   47.8580   26.5260   46.5780 N   0  0  0  0  0  0  0  0  0  0  0  0
   46.6380   27.0000   46.2310 C   0  0  0  0  0  0  0  0  0  0  0  0
   46.3500   28.2900   46.1410 N   0  0  0  0  0  0  0  0  0  0  0  0
   47.6890   30.9279   44.2818 H   0  0  0  0  0  0  0  0  0  0  0  0
   45.9860   34.3906   46.1691 H   0  0  0  0  0  0  0  0  0  0  0  0
   45.0345   33.7655   48.8925 H   0  0  0  0  0  0  0  0  0  0  0  0
   45.0228   31.5917   50.3424 H   0  0  0  0  0  0  0  0  0  0  0  0
   45.7551   35.9451   42.1204 H   0  0  0  0  0  0  0  0  0  0  0  0
   47.8865   35.6167   40.8243 H   0  0  0  0  0  0  0  0  0  0  0  0
   49.5392   33.8668   41.6203 H   0  0  0  0  0  0  0  0  0  0  0  0
   49.3008   29.5165   46.9624 H   0  0  0  0  0  0  0  0  0  0  0  0
   49.8466   27.1145   47.1346 H   0  0  0  0  0  0  0  0  0  0  0  0
   45.8417   26.2735   46.0116 H   0  0  0  0  0  0  0  0  0  0  0  0
  1  9  2  0
  2  1  1  0
  2  3  2  0
  3  4  1  0
  4  5  1  0
  5  6  1  0
  7  6  2  0
  8  4  2  0
  8  7  1  0
  9 16  1  0
  9  8  1  0
 10 15  2  0
 11 12  2  0
 11 10  1  0
 12 13  1  0
 13 14  2  0
 14  2  1  0
 15 14  1  0
 16 17  2  0
 17 18  1  0
 19 18  2  0
 20 19  1  0
 21 20  2  0
 21 16  1  0
  1 22  1  0
  3 23  1  0
  5 24  1  0
  6 25  1  0
 10 26  1  0
 11 27  1  0
 12 28  1  0
 17 29  1  0
 18 30  1  0
 20 31  1  0
M  ISO  8  22  14  23  14  24   9  25  14  26  14  27  14  28  14  29  14
M  ISO  2  30  14  31  14
M  END
>  <minimizedAffinity>  (1) 
-5.25907087

>  <minimizedRMSD>  (1) 
0.676543355

$$$$
