
     RDKit          3D

 30 33  0  0  0  0  0  0  0  0999 V2000
   47.3240   31.4210   45.1480 C   0  0  0  0  0  0  0  0  0  0  0  0
   46.8830   32.7400   45.1270 C   0  0  0  0  0  0  0  0  0  0  0  0
   46.2130   33.3300   46.1800 C   0  0  0  0  0  0  0  0  0  0  0  0
   45.9560   32.5850   47.3310 C   0  0  0  0  0  0  0  0  0  0  0  0
   45.3410   32.8260   48.5280 N   0  0  0  0  0  0  0  0  0  0  0  0
   45.3980   31.6920   49.2700 C   0  0  0  0  0  0  0  0  0  0  0  0
   46.0430   30.7740   48.5260 N   0  0  0  0  0  0  0  0  0  0  0  0
   46.3970   31.2850   47.3380 C   0  0  0  0  0  0  0  0  0  0  0  0
   47.0630   30.6790   46.3070 C   0  0  0  0  0  0  0  0  0  0  0  0
   46.4530   35.2020   42.4280 C   0  0  0  0  0  0  0  0  0  0  0  0
   47.6480   35.0440   41.6890 C   0  0  0  0  0  0  0  0  0  0  0  0
   48.5850   34.0980   42.1230 C   0  0  0  0  0  0  0  0  0  0  0  0
   48.2660   33.3880   43.2470 N   0  0  0  0  0  0  0  0  0  0  0  0
   47.1360   33.5440   43.9390 C   0  0  0  0  0  0  0  0  0  0  0  0
   46.2280   34.4510   43.5290 N   0  0  0  0  0  0  0  0  0  0  0  0
   47.5580   29.2940   46.2600 C   0  0  0  0  0  0  0  0  0  0  0  0
   49.0360   29.0280   46.2110 C   0  0  0  0  0  0  0  0  0  0  0  0
   48.2680   28.6820   47.4190 C   0  0  0  0  0  0  0  0  0  0  0  0
   47.8547   30.9797   44.2915 H   0  0  0  0  0  0  0  0  0  0  0  0
   45.8849   34.3777   46.1120 H   0  0  0  0  0  0  0  0  0  0  0  0
   44.9089   33.7153   48.8166 H   0  0  0  0  0  0  0  0  0  0  0  0
   44.9951   31.5499   50.2837 H   0  0  0  0  0  0  0  0  0  0  0  0
   45.7031   35.9393   42.1055 H   0  0  0  0  0  0  0  0  0  0  0  0
   47.8378   35.6515   40.7918 H   0  0  0  0  0  0  0  0  0  0  0  0
   49.5310   33.9343   41.5860 H   0  0  0  0  0  0  0  0  0  0  0  0
   46.6821   29.0184   45.6544 H   0  0  0  0  0  0  0  0  0  0  0  0
   49.4299   28.2311   45.5631 H   0  0  0  0  0  0  0  0  0  0  0  0
   49.9288   29.6369   46.0056 H   0  0  0  0  0  0  0  0  0  0  0  0
   48.4097   29.2623   48.3427 H   0  0  0  0  0  0  0  0  0  0  0  0
   48.1320   27.7652   48.0115 H   0  0  0  0  0  0  0  0  0  0  0  0
  1  9  2  0
  2  1  1  0
  2  3  2  0
  3  4  1  0
  4  8  2  0
  4  5  1  0
  5  6  1  0
  7  6  2  0
  8  7  1  0
  9  8  1  0
 10 15  2  0
 11 12  2  0
 11 10  1  0
 12 13  1  0
 13 14  2  0
 14  2  1  0
 15 14  1  0
 16  9  1  0
 16 18  1  0
 17 16  1  0
 17 18  1  0
  1 19  1  0
  3 20  1  0
  5 21  1  0
  6 22  1  0
 10 23  1  0
 11 24  1  0
 12 25  1  0
 16 26  1  0
 17 27  1  0
 17 28  1  0
 18 29  1  0
 18 30  1  0
M  ISO  8  19  14  20  14  21   9  22  14  23  14  24  14  25  14  26  13
M  ISO  4  27  13  28  13  29  13  30  13
M  END
>  <minimizedAffinity>  (1) 
-5.13820934

>  <minimizedRMSD>  (1) 
0.34116739

$$$$
