
     RDKit          3D

 43 47  0  0  0  0  0  0  0  0999 V2000
   47.1030   31.2920   45.1040 C   0  0  0  0  0  0  0  0  0  0  0  0
   46.8620   32.6580   45.1180 C   0  0  0  0  0  0  0  0  0  0  0  0
   46.3330   33.3160   46.2060 C   0  0  0  0  0  0  0  0  0  0  0  0
   46.0180   32.6020   47.3590 C   0  0  0  0  0  0  0  0  0  0  0  0
   45.5000   32.9000   48.5830 N   0  0  0  0  0  0  0  0  0  0  0  0
   45.4250   31.7560   49.3000 C   0  0  0  0  0  0  0  0  0  0  0  0
   45.8960   30.7600   48.5160 N   0  0  0  0  0  0  0  0  0  0  0  0
   46.2650   31.2540   47.3220 C   0  0  0  0  0  0  0  0  0  0  0  0
   46.7920   30.5700   46.2490 C   0  0  0  0  0  0  0  0  0  0  0  0
   46.6310   35.1330   42.4120 C   0  0  0  0  0  0  0  0  0  0  0  0
   47.7930   34.8920   41.6770 C   0  0  0  0  0  0  0  0  0  0  0  0
   48.6500   33.8870   42.1080 C   0  0  0  0  0  0  0  0  0  0  0  0
   48.3260   33.1700   43.2330 N   0  0  0  0  0  0  0  0  0  0  0  0
   47.1830   33.4400   43.9170 C   0  0  0  0  0  0  0  0  0  0  0  0
   46.3320   34.4170   43.5150 N   0  0  0  0  0  0  0  0  0  0  0  0
   47.0140   29.1290   46.3210 C   0  0  0  0  0  0  0  0  0  0  0  0
   47.5060   28.3540   45.2870 C   0  0  0  0  0  0  0  0  0  0  0  0
   47.5510   27.0590   45.7960 C   0  0  0  0  0  0  0  0  0  0  0  0
   47.0900   27.1170   47.0920 C   0  0  0  0  0  0  0  0  0  0  0  0
   46.7860   28.3700   47.3490 O   0  0  0  0  0  0  0  0  0  0  0  0
   45.7140   25.4600   48.2710 C   0  0  0  0  0  0  0  0  0  0  0  0
   46.9600   25.9960   48.0190 C   0  0  0  0  0  0  0  0  0  0  0  0
   48.0880   25.4870   48.6290 C   0  0  0  0  0  0  0  0  0  0  0  0
   48.0390   24.4350   49.5120 C   0  0  0  0  0  0  0  0  0  0  0  0
   46.7770   23.8900   49.7690 C   0  0  0  0  0  0  0  0  0  0  0  0
   45.6620   24.4030   49.1570 C   0  0  0  0  0  0  0  0  0  0  0  0
   44.2690   26.0880   47.5090 S   0  0  0  0  0  0  0  0  0  0  0  0
   44.1210   25.3980   46.1640 O   0  0  0  0  0  0  0  0  0  0  0  0
   43.0460   25.6890   48.3200 O   0  0  0  0  0  0  0  0  0  0  0  0
   47.5257   30.7978   44.2169 H   0  0  0  0  0  0  0  0  0  0  0  0
   46.1600   34.4015   46.1642 H   0  0  0  0  0  0  0  0  0  0  0  0
   45.2147   33.8353   48.9066 H   0  0  0  0  0  0  0  0  0  0  0  0
   45.0506   31.6545   50.3293 H   0  0  0  0  0  0  0  0  0  0  0  0
   45.9428   35.9258   42.0837 H   0  0  0  0  0  0  0  0  0  0  0  0
   48.0244   35.4832   40.7787 H   0  0  0  0  0  0  0  0  0  0  0  0
   49.5757   33.6687   41.5553 H   0  0  0  0  0  0  0  0  0  0  0  0
   47.7984   28.6882   44.2806 H   0  0  0  0  0  0  0  0  0  0  0  0
   47.8909   26.1588   45.2630 H   0  0  0  0  0  0  0  0  0  0  0  0
   49.0637   25.9404   48.3999 H   0  0  0  0  0  0  0  0  0  0  0  0
   48.9469   24.0414   49.9925 H   0  0  0  0  0  0  0  0  0  0  0  0
   46.6781   23.0449   50.4661 H   0  0  0  0  0  0  0  0  0  0  0  0
   44.6840   23.9526   49.3820 H   0  0  0  0  0  0  0  0  0  0  0  0
   44.3653   27.4505   47.4036 H   0  0  0  0  0  0  0  0  0  0  0  0
  1  2  2  0
  1  9  1  0
  2  3  1  0
  3  4  2  0
  4  5  1  0
  5  6  1  0
  7  6  2  0
  8  4  1  0
  8  7  1  0
  9 16  1  0
  9  8  2  0
 10 15  2  0
 11 12  2  0
 11 10  1  0
 12 13  1  0
 13 14  2  0
 14  2  1  0
 15 14  1  0
 16 20  1  0
 17 18  1  0
 17 16  2  0
 18 19  2  0
 19 20  1  0
 19 22  1  0
 21 26  2  0
 22 21  1  0
 22 23  2  0
 23 24  1  0
 24 25  2  0
 26 25  1  0
 27 21  1  0
 27 29  2  0
 28 27  2  0
  1 30  1  0
  3 31  1  0
  5 32  1  0
  6 33  1  0
 10 34  1  0
 11 35  1  0
 12 36  1  0
 17 37  1  0
 18 38  1  0
 23 39  1  0
 24 40  1  0
 25 41  1  0
 26 42  1  0
 27 43  1  0
M  ISO  8  30  14  31  14  32   9  33  14  34  14  35  14  36  14  37  14
M  ISO  6  38  14  39  14  40  14  41  14  42  14  43  11
M  END
>  <minimizedAffinity>  (1) 
-6.14876032

>  <minimizedRMSD>  (1) 
1.59706604

$$$$
