
     RDKit          3D

 24 25  0  0  0  0  0  0  0  0999 V2000
   45.3820   36.0480   43.1990 C   0  0  0  0  0  0  0  0  0  0  0  0
   46.2750   34.9870   43.0470 C   0  0  0  0  0  0  0  0  0  0  0  0
   46.3220   34.0270   44.0720 C   0  0  0  0  0  0  0  0  0  0  0  0
   45.5070   34.1730   45.1480 N   0  0  0  0  0  0  0  0  0  0  0  0
   44.6540   35.2280   45.2480 C   0  0  0  0  0  0  0  0  0  0  0  0
   44.5930   36.1500   44.2870 N   0  0  0  0  0  0  0  0  0  0  0  0
   47.1080   34.8760   41.9000 C   0  0  0  0  0  0  0  0  0  0  0  0
   48.1320   35.6190   41.8550 O   0  0  0  0  0  0  0  0  0  0  0  0
   47.0420   34.0750   40.7360 N   0  0  0  0  0  0  0  0  0  0  0  0
   48.1930   33.9320   39.8730 C   0  0  0  0  0  0  0  0  0  0  0  0
   47.5710   33.7460   38.5180 C   0  0  0  0  0  0  0  0  0  0  0  0
   46.2060   33.1850   38.7500 C   0  0  0  0  0  0  0  0  0  0  0  0
   45.9210   33.3040   40.2130 C   0  0  0  0  0  0  0  0  0  0  0  0
   45.3206   36.8170   42.4149 H   0  0  0  0  0  0  0  0  0  0  0  0
   47.0086   33.1703   44.0037 H   0  0  0  0  0  0  0  0  0  0  0  0
   44.0068   35.3215   46.1325 H   0  0  0  0  0  0  0  0  0  0  0  0
   48.8228   34.8335   39.8997 H   0  0  0  0  0  0  0  0  0  0  0  0
   48.8567   33.1048   40.1651 H   0  0  0  0  0  0  0  0  0  0  0  0
   48.1717   33.0474   37.9170 H   0  0  0  0  0  0  0  0  0  0  0  0
   47.5213   34.6982   37.9695 H   0  0  0  0  0  0  0  0  0  0  0  0
   45.4618   33.7542   38.1737 H   0  0  0  0  0  0  0  0  0  0  0  0
   46.1557   32.1347   38.4269 H   0  0  0  0  0  0  0  0  0  0  0  0
   44.9713   33.8323   40.3834 H   0  0  0  0  0  0  0  0  0  0  0  0
   45.8195   32.3243   40.7028 H   0  0  0  0  0  0  0  0  0  0  0  0
  1  6  2  0
  2  1  1  0
  2  3  2  0
  3  4  1  0
  4  5  2  0
  6  5  1  0
  7  2  1  0
  8  7  2  0
  9  7  1  0
 10  9  1  0
 11 12  1  0
 11 10  1  0
 12 13  1  0
 13  9  1  0
  1 14  1  0
  3 15  1  0
  5 16  1  0
 10 17  1  0
 10 18  1  0
 11 19  1  0
 11 20  1  0
 12 21  1  0
 12 22  1  0
 13 23  1  0
 13 24  1  0
M  ISO  8  14  14  15  14  16  14  17  13  18  13  19  13  20  13  21  13
M  ISO  3  22  13  23  13  24  13
M  END
>  <minimizedAffinity>  (1) 
-4.20819807

>  <minimizedRMSD>  (1) 
0.477437943

$$$$
