
     RDKit          3D

 20 20  0  0  0  0  0  0  0  0999 V2000
   46.3650   32.9290   45.9880 C   0  0  0  0  0  0  0  0  0  0  0  0
   45.9030   33.9990   45.1010 C   0  0  0  0  0  0  0  0  0  0  0  0
   44.9060   34.8960   45.4560 C   0  0  0  0  0  0  0  0  0  0  0  0
   44.5170   35.8910   44.5580 C   0  0  0  0  0  0  0  0  0  0  0  0
   45.1600   35.9250   43.3480 N   0  0  0  0  0  0  0  0  0  0  0  0
   46.1270   35.0410   43.0290 C   0  0  0  0  0  0  0  0  0  0  0  0
   46.4760   34.1040   43.9030 N   0  0  0  0  0  0  0  0  0  0  0  0
   45.4420   32.8890   47.1980 C   0  0  0  0  0  0  0  0  0  0  0  0
   44.9620   30.9490   48.7450 C   0  0  0  0  0  0  0  0  0  0  0  0
   45.3280   31.5690   49.7660 O   0  0  0  0  0  0  0  0  0  0  0  0
   44.9830   31.5160   47.4400 N   0  0  0  0  0  0  0  0  0  0  0  0
   47.3964   33.1320   46.3119 H   0  0  0  0  0  0  0  0  0  0  0  0
   46.3477   31.9629   45.4623 H   0  0  0  0  0  0  0  0  0  0  0  0
   44.4237   34.8232   46.4419 H   0  0  0  0  0  0  0  0  0  0  0  0
   43.7291   36.6160   44.8102 H   0  0  0  0  0  0  0  0  0  0  0  0
   46.6244   35.0957   42.0494 H   0  0  0  0  0  0  0  0  0  0  0  0
   45.9864   33.2514   48.0825 H   0  0  0  0  0  0  0  0  0  0  0  0
   44.5695   33.5305   47.0053 H   0  0  0  0  0  0  0  0  0  0  0  0
   44.6062   29.9145   48.8604 H   0  0  0  0  0  0  0  0  0  0  0  0
   44.6669   30.9464   46.6421 H   0  0  0  0  0  0  0  0  0  0  0  0
  1  8  1  0
  2  3  2  0
  2  1  1  0
  4  3  1  0
  5  4  2  0
  6  5  1  0
  6  7  2  0
  7  2  1  0
  8 11  1  0
  9 10  2  0
 11  9  1  0
  1 12  1  0
  1 13  1  0
  3 14  1  0
  4 15  1  0
  6 16  1  0
  8 17  1  0
  8 18  1  0
  9 19  1  0
 11 20  1  0
M  ISO  8  12   8  13   8  14  14  15  14  16  14  17   8  18   8  19   6
M  END
>  <minimizedAffinity>  (1) 
-3.87321448

>  <minimizedRMSD>  (1) 
6.11325407

$$$$
