
     RDKit          3D

 19 20  0  0  0  0  0  0  0  0999 V2000
   46.9460   34.8610   41.9690 C   0  0  0  0  0  0  0  0  0  0  0  0
   48.0850   35.3710   41.9730 O   0  0  0  0  0  0  0  0  0  0  0  0
   45.3370   36.0820   43.3550 C   0  0  0  0  0  0  0  0  0  0  0  0
   46.1730   34.9600   43.1660 C   0  0  0  0  0  0  0  0  0  0  0  0
   46.2020   33.9830   44.1760 C   0  0  0  0  0  0  0  0  0  0  0  0
   45.4270   34.1720   45.2740 N   0  0  0  0  0  0  0  0  0  0  0  0
   44.6420   35.2610   45.4180 C   0  0  0  0  0  0  0  0  0  0  0  0
   44.5970   36.2130   44.4620 N   0  0  0  0  0  0  0  0  0  0  0  0
   46.4820   34.2020   40.7540 C   0  0  0  0  0  0  0  0  0  0  0  0
   45.1550   33.9940   40.4660 C   0  0  0  0  0  0  0  0  0  0  0  0
   45.0120   33.3670   39.2850 N   0  0  0  0  0  0  0  0  0  0  0  0
   46.2600   33.1710   38.8090 C   0  0  0  0  0  0  0  0  0  0  0  0
   47.1370   33.6850   39.7150 N   0  0  0  0  0  0  0  0  0  0  0  0
   45.2934   36.8610   42.5796 H   0  0  0  0  0  0  0  0  0  0  0  0
   46.8358   33.0892   44.0791 H   0  0  0  0  0  0  0  0  0  0  0  0
   44.0313   35.3739   46.3259 H   0  0  0  0  0  0  0  0  0  0  0  0
   44.3209   34.2995   41.1148 H   0  0  0  0  0  0  0  0  0  0  0  0
   44.1278   33.0916   38.8341 H   0  0  0  0  0  0  0  0  0  0  0  0
   46.5218   32.6830   37.8586 H   0  0  0  0  0  0  0  0  0  0  0  0
  1  2  2  0
  1  4  1  0
  3  8  2  0
  4  3  1  0
  4  5  2  0
  5  6  1  0
  6  7  2  0
  8  7  1  0
  9  1  1  0
 10  9  2  0
 11 10  1  0
 12 11  1  0
 12 13  2  0
 13  9  1  0
  3 14  1  0
  5 15  1  0
  7 16  1  0
 10 17  1  0
 11 18  1  0
 12 19  1  0
M  ISO  6  14  14  15  14  16  14  17  14  18   9  19  14
M  END
>  <minimizedAffinity>  (1) 
-4.00371027

>  <minimizedRMSD>  (1) 
0.50021255

$$$$
