
     RDKit          3D

 30 31  0  0  0  0  0  0  0  0999 V2000
   47.6900   34.2190   41.7940 C   0  0  0  0  0  0  0  0  0  0  0  0
   48.5810   33.4660   42.4710 N   0  0  0  0  0  0  0  0  0  0  0  0
   48.4730   32.1080   42.8440 C   0  0  0  0  0  0  0  0  0  0  0  0
   49.2090   31.4190   41.6840 C   0  0  0  0  0  0  0  0  0  0  0  0
   50.6090   31.8580   41.5180 C   0  0  0  0  0  0  0  0  0  0  0  0
   51.0040   33.1440   42.1420 C   0  0  0  0  0  0  0  0  0  0  0  0
   49.9100   34.0400   42.6480 C   0  0  0  0  0  0  0  0  0  0  0  0
   50.2100   35.2740   43.2060 O   0  0  0  0  0  0  0  0  0  0  0  0
   46.2890   33.6970   41.9960 C   0  0  0  0  0  0  0  0  0  0  0  0
   45.7100   34.4250   43.1390 C   0  0  0  0  0  0  0  0  0  0  0  0
   45.2550   35.7190   43.0240 C   0  0  0  0  0  0  0  0  0  0  0  0
   44.7080   36.3700   44.1340 C   0  0  0  0  0  0  0  0  0  0  0  0
   44.6570   35.6610   45.2970 N   0  0  0  0  0  0  0  0  0  0  0  0
   45.1040   34.4130   45.3770 C   0  0  0  0  0  0  0  0  0  0  0  0
   45.6180   33.8220   44.3040 N   0  0  0  0  0  0  0  0  0  0  0  0
   47.9346   34.1915   40.7219 H   0  0  0  0  0  0  0  0  0  0  0  0
   47.7407   35.2514   42.1704 H   0  0  0  0  0  0  0  0  0  0  0  0
   48.9680   31.9141   43.8070 H   0  0  0  0  0  0  0  0  0  0  0  0
   47.4394   31.7616   42.9914 H   0  0  0  0  0  0  0  0  0  0  0  0
   49.2057   30.3344   41.8674 H   0  0  0  0  0  0  0  0  0  0  0  0
   48.6771   31.6932   40.7610 H   0  0  0  0  0  0  0  0  0  0  0  0
   51.2524   31.0741   41.9442 H   0  0  0  0  0  0  0  0  0  0  0  0
   50.7228   32.0256   40.4368 H   0  0  0  0  0  0  0  0  0  0  0  0
   52.0619   33.4318   42.2312 H   0  0  0  0  0  0  0  0  0  0  0  0
   51.1524   35.5684   43.2787 H   0  0  0  0  0  0  0  0  0  0  0  0
   45.6872   33.8750   41.0926 H   0  0  0  0  0  0  0  0  0  0  0  0
   46.3013   32.6143   42.1900 H   0  0  0  0  0  0  0  0  0  0  0  0
   45.3218   36.2413   42.0582 H   0  0  0  0  0  0  0  0  0  0  0  0
   44.3370   37.4037   44.0717 H   0  0  0  0  0  0  0  0  0  0  0  0
   45.0487   33.8689   46.3314 H   0  0  0  0  0  0  0  0  0  0  0  0
  1  9  1  0
  1  2  1  0
  2  7  1  0
  2  3  1  0
  4  3  1  0
  5  4  1  0
  5  6  1  0
  6  7  2  0
  7  8  1  0
  9 10  1  0
 10 15  1  0
 11 10  2  0
 11 12  1  0
 12 13  2  0
 13 14  1  0
 15 14  2  0
  1 16  1  0
  1 17  1  0
  3 18  1  0
  3 19  1  0
  4 20  1  0
  4 21  1  0
  5 22  1  0
  5 23  1  0
  6 24  1  0
  8 25  1  0
  9 26  1  0
  9 27  1  0
 11 28  1  0
 12 29  1  0
 14 30  1  0
M  ISO  8  16   8  17   8  18  13  19  13  20  13  21  13  22  13  23  13
M  ISO  7  24  13  25   3  26   8  27   8  28  14  29  14  30  14
M  END
>  <minimizedAffinity>  (1) 
-4.7410264

>  <minimizedRMSD>  (1) 
0.401878059

$$$$
