
     RDKit          3D

 43 45  0  0  0  0  0  0  0  0999 V2000
   46.5710   33.2540   40.0880 N   0  0  0  0  0  0  0  0  0  0  0  0
   45.7630   32.3970   39.3050 C   0  0  0  0  0  0  0  0  0  0  0  0
   45.8640   33.0670   37.9280 C   0  0  0  0  0  0  0  0  0  0  0  0
   47.2370   33.2040   37.4100 C   0  0  0  0  0  0  0  0  0  0  0  0
   48.3510   33.0880   38.3850 C   0  0  0  0  0  0  0  0  0  0  0  0
   48.0040   33.1330   39.8370 C   0  0  0  0  0  0  0  0  0  0  0  0
   49.0200   33.1100   40.8150 N   0  0  0  0  0  0  0  0  0  0  0  0
   50.2660   32.3990   40.6200 C   0  0  0  0  0  0  0  0  0  0  0  0
   50.7550   31.9860   42.0140 C   0  0  0  0  0  0  0  0  0  0  0  0
   51.0850   33.1480   42.8130 N   0  0  0  0  0  0  0  0  0  0  0  0
   50.3210   34.3260   42.3810 C   0  0  0  0  0  0  0  0  0  0  0  0
   48.9160   33.7910   42.1010 C   0  0  0  0  0  0  0  0  0  0  0  0
   46.1790   34.2910   40.8590 C   0  0  0  0  0  0  0  0  0  0  0  0
   44.8130   34.0360   41.4410 C   0  0  0  0  0  0  0  0  0  0  0  0
   44.8750   34.3740   42.8790 C   0  0  0  0  0  0  0  0  0  0  0  0
   44.4360   35.5810   43.3650 C   0  0  0  0  0  0  0  0  0  0  0  0
   44.5120   35.8560   44.7350 C   0  0  0  0  0  0  0  0  0  0  0  0
   45.0320   34.8760   45.5180 N   0  0  0  0  0  0  0  0  0  0  0  0
   45.4490   33.7180   45.0250 C   0  0  0  0  0  0  0  0  0  0  0  0
   45.3650   33.4840   43.7160 N   0  0  0  0  0  0  0  0  0  0  0  0
   46.1633   31.3726   39.2851 H   0  0  0  0  0  0  0  0  0  0  0  0
   44.7341   32.2826   39.6768 H   0  0  0  0  0  0  0  0  0  0  0  0
   45.2855   32.4659   37.2110 H   0  0  0  0  0  0  0  0  0  0  0  0
   45.4740   34.0883   38.0496 H   0  0  0  0  0  0  0  0  0  0  0  0
   47.3819   32.4228   36.6493 H   0  0  0  0  0  0  0  0  0  0  0  0
   47.2952   34.2378   37.0387 H   0  0  0  0  0  0  0  0  0  0  0  0
   49.3926   32.9732   38.0504 H   0  0  0  0  0  0  0  0  0  0  0  0
   50.1015   31.5084   39.9957 H   0  0  0  0  0  0  0  0  0  0  0  0
   51.0081   33.0300   40.1091 H   0  0  0  0  0  0  0  0  0  0  0  0
   49.9617   31.4154   42.5192 H   0  0  0  0  0  0  0  0  0  0  0  0
   51.6594   31.3703   41.9002 H   0  0  0  0  0  0  0  0  0  0  0  0
   50.8668   32.9498   43.7999 H   0  0  0  0  0  0  0  0  0  0  0  0
   50.2962   35.0860   43.1758 H   0  0  0  0  0  0  0  0  0  0  0  0
   50.7659   34.8127   41.5006 H   0  0  0  0  0  0  0  0  0  0  0  0
   48.1922   34.6173   42.0434 H   0  0  0  0  0  0  0  0  0  0  0  0
   48.5640   33.1185   42.8971 H   0  0  0  0  0  0  0  0  0  0  0  0
   46.9010   34.4251   41.6780 H   0  0  0  0  0  0  0  0  0  0  0  0
   46.1346   35.1970   40.2368 H   0  0  0  0  0  0  0  0  0  0  0  0
   44.0661   34.6679   40.9381 H   0  0  0  0  0  0  0  0  0  0  0  0
   44.5214   32.9846   41.3014 H   0  0  0  0  0  0  0  0  0  0  0  0
   44.0238   36.3331   42.6761 H   0  0  0  0  0  0  0  0  0  0  0  0
   44.1693   36.8134   45.1545 H   0  0  0  0  0  0  0  0  0  0  0  0
   45.8638   32.9513   45.6959 H   0  0  0  0  0  0  0  0  0  0  0  0
  1 13  1  0
  2  1  1  0
  3  2  1  0
  4  3  1  0
  4  5  1  0
  5  6  2  0
  6  1  1  0
  6  7  1  0
  7 12  1  0
  8  7  1  0
  8  9  1  0
  9 10  1  0
 11 10  1  0
 12 11  1  0
 13 14  1  0
 14 15  1  0
 15 16  2  0
 15 20  1  0
 16 17  1  0
 17 18  2  0
 19 18  1  0
 20 19  2  0
  2 21  1  0
  2 22  1  0
  3 23  1  0
  3 24  1  0
  4 25  1  0
  4 26  1  0
  5 27  1  0
  8 28  1  0
  8 29  1  0
  9 30  1  0
  9 31  1  0
 10 32  1  0
 11 33  1  0
 11 34  1  0
 12 35  1  0
 12 36  1  0
 13 37  1  0
 13 38  1  0
 14 39  1  0
 14 40  1  0
 16 41  1  0
 17 42  1  0
 19 43  1  0
M  ISO  8  21  13  22  13  23  13  24  13  25  13  26  13  27  13  28  13
M  ISO  8  29  13  30  13  31  13  32   5  33  13  34  13  35  13  36  13
M  ISO  7  37   8  38   8  39   8  40   8  41  14  42  14  43  14
M  END
>  <minimizedAffinity>  (1) 
-4.61314011

>  <minimizedRMSD>  (1) 
3.65718651

$$$$
