
     RDKit          3D

 46 49  0  0  0  0  0  0  0  0999 V2000
   42.2320   33.6020   40.9410 C   0  0  0  0  0  0  0  0  0  0  0  0
   41.1170   33.9250   40.2770 N   0  0  0  0  0  0  0  0  0  0  0  0
   40.3370   35.1160   40.4090 C   0  0  0  0  0  0  0  0  0  0  0  0
   40.7650   35.8120   39.1130 C   0  0  0  0  0  0  0  0  0  0  0  0
   40.4350   35.0610   37.9150 C   0  0  0  0  0  0  0  0  0  0  0  0
   40.3020   33.6250   37.9980 C   0  0  0  0  0  0  0  0  0  0  0  0
   40.6890   32.9220   39.2740 C   0  0  0  0  0  0  0  0  0  0  0  0
   40.6350   31.2130   39.4840 S   0  0  0  0  0  0  0  0  0  0  0  0
   39.1690   30.6460   40.2670 C   0  0  0  0  0  0  0  0  0  0  0  0
   38.2630   29.7010   40.6810 C   0  0  0  0  0  0  0  0  0  0  0  0
   37.1790   30.2570   41.3230 C   0  0  0  0  0  0  0  0  0  0  0  0
   37.4350   31.5750   41.2980 N   0  0  0  0  0  0  0  0  0  0  0  0
   38.5960   31.8200   40.6830 N   0  0  0  0  0  0  0  0  0  0  0  0
   43.4810   33.9170   40.2040 C   0  0  0  0  0  0  0  0  0  0  0  0
   44.4400   34.5070   41.1580 C   0  0  0  0  0  0  0  0  0  0  0  0
   44.0480   35.4970   42.0290 C   0  0  0  0  0  0  0  0  0  0  0  0
   44.9960   36.0230   42.8890 C   0  0  0  0  0  0  0  0  0  0  0  0
   46.2690   35.5350   42.8320 N   0  0  0  0  0  0  0  0  0  0  0  0
   46.6140   34.5750   41.9780 C   0  0  0  0  0  0  0  0  0  0  0  0
   45.6830   34.0840   41.1580 N   0  0  0  0  0  0  0  0  0  0  0  0
   47.9920   34.0930   42.0090 C   0  0  0  0  0  0  0  0  0  0  0  0
   48.3080   32.8250   41.5270 C   0  0  0  0  0  0  0  0  0  0  0  0
   49.6010   32.3820   41.5640 C   0  0  0  0  0  0  0  0  0  0  0  0
   50.5000   33.2700   42.0940 C   0  0  0  0  0  0  0  0  0  0  0  0
   50.2470   34.5390   42.5880 C   0  0  0  0  0  0  0  0  0  0  0  0
   48.9410   34.9070   42.5180 N   0  0  0  0  0  0  0  0  0  0  0  0
   42.2417   34.1548   41.8919 H   0  0  0  0  0  0  0  0  0  0  0  0
   42.2130   32.5120   41.0876 H   0  0  0  0  0  0  0  0  0  0  0  0
   39.2577   34.9046   40.4291 H   0  0  0  0  0  0  0  0  0  0  0  0
   40.4942   35.6901   41.3341 H   0  0  0  0  0  0  0  0  0  0  0  0
   40.2627   36.7892   39.0605 H   0  0  0  0  0  0  0  0  0  0  0  0
   41.8605   35.9066   39.1436 H   0  0  0  0  0  0  0  0  0  0  0  0
   41.2246   35.2686   37.1778 H   0  0  0  0  0  0  0  0  0  0  0  0
   39.4207   35.4036   37.6624 H   0  0  0  0  0  0  0  0  0  0  0  0
   39.9226   33.0510   37.1398 H   0  0  0  0  0  0  0  0  0  0  0  0
   38.3890   28.6205   40.5180 H   0  0  0  0  0  0  0  0  0  0  0  0
   36.3080   29.7424   41.7549 H   0  0  0  0  0  0  0  0  0  0  0  0
   36.8205   32.2983   41.6981 H   0  0  0  0  0  0  0  0  0  0  0  0
   43.9020   32.9965   39.7733 H   0  0  0  0  0  0  0  0  0  0  0  0
   43.2733   34.6232   39.3866 H   0  0  0  0  0  0  0  0  0  0  0  0
   43.0098   35.8604   42.0415 H   0  0  0  0  0  0  0  0  0  0  0  0
   44.7294   36.8166   43.6025 H   0  0  0  0  0  0  0  0  0  0  0  0
   47.5172   32.1799   41.1165 H   0  0  0  0  0  0  0  0  0  0  0  0
   49.8970   31.3884   41.1963 H   0  0  0  0  0  0  0  0  0  0  0  0
   51.5471   32.9352   42.1316 H   0  0  0  0  0  0  0  0  0  0  0  0
   51.0323   35.1899   42.9997 H   0  0  0  0  0  0  0  0  0  0  0  0
  2  3  1  0
  2  1  1  0
  4  3  1  0
  5  6  1  0
  5  4  1  0
  6  7  2  0
  7  8  1  0
  7  2  1  0
  8  9  1  0
  9 10  1  0
  9 13  2  0
 10 11  2  0
 12 11  1  0
 13 12  1  0
 14  1  1  0
 14 15  1  0
 15 20  1  0
 15 16  2  0
 16 17  1  0
 18 17  2  0
 19 21  1  0
 19 18  1  0
 20 19  2  0
 21 26  2  0
 22 23  2  0
 22 21  1  0
 23 24  1  0
 24 25  2  0
 26 25  1  0
  1 27  1  0
  1 28  1  0
  3 29  1  0
  3 30  1  0
  4 31  1  0
  4 32  1  0
  5 33  1  0
  5 34  1  0
  6 35  1  0
 10 36  1  0
 11 37  1  0
 12 38  1  0
 14 39  1  0
 14 40  1  0
 16 41  1  0
 17 42  1  0
 22 43  1  0
 23 44  1  0
 24 45  1  0
 25 46  1  0
M  ISO  8  27   8  28   8  29  13  30  13  31  13  32  13  33  13  34  13
M  ISO  8  35  13  36  14  37  14  38   9  39   8  40   8  41  14  42  14
M  ISO  4  43  14  44  14  45  14  46  14
M  END
>  <minimizedAffinity>  (1) 
-6.05352592

>  <minimizedRMSD>  (1) 
4.01724005

$$$$
