
     RDKit          3D

 42 44  0  0  0  0  0  0  0  0999 V2000
   43.1610   33.1530   41.3970 C   0  0  0  0  0  0  0  0  0  0  0  0
   44.2130   34.0390   41.9250 C   0  0  0  0  0  0  0  0  0  0  0  0
   43.8870   35.2590   42.4720 C   0  0  0  0  0  0  0  0  0  0  0  0
   44.9130   36.0660   42.9460 C   0  0  0  0  0  0  0  0  0  0  0  0
   46.1930   35.6050   42.8460 N   0  0  0  0  0  0  0  0  0  0  0  0
   46.4690   34.4170   42.3120 C   0  0  0  0  0  0  0  0  0  0  0  0
   45.4680   33.6580   41.8610 N   0  0  0  0  0  0  0  0  0  0  0  0
   47.8690   33.9950   42.2780 C   0  0  0  0  0  0  0  0  0  0  0  0
   48.2010   32.6660   42.0340 C   0  0  0  0  0  0  0  0  0  0  0  0
   49.5100   32.2600   42.0120 C   0  0  0  0  0  0  0  0  0  0  0  0
   50.4200   33.2760   42.2510 C   0  0  0  0  0  0  0  0  0  0  0  0
   50.1430   34.6140   42.4990 C   0  0  0  0  0  0  0  0  0  0  0  0
   48.8180   34.9190   42.5000 N   0  0  0  0  0  0  0  0  0  0  0  0
   41.8830   33.9170   41.3600 C   0  0  0  0  0  0  0  0  0  0  0  0
   41.0200   33.4710   40.4560 N   0  0  0  0  0  0  0  0  0  0  0  0
   40.2650   32.2780   40.4430 C   0  0  0  0  0  0  0  0  0  0  0  0
   38.8850   32.8790   40.7830 C   0  0  0  0  0  0  0  0  0  0  0  0
   38.4170   33.8230   39.7820 C   0  0  0  0  0  0  0  0  0  0  0  0
   39.3730   34.5360   38.9630 C   0  0  0  0  0  0  0  0  0  0  0  0
   40.8260   34.3830   39.3100 C   0  0  0  0  0  0  0  0  0  0  0  0
   42.0740   35.2570   38.4330 S   0  0  0  0  0  0  0  0  0  0  0  0
   41.2370   36.3870   37.2900 C   0  0  0  0  0  0  0  0  0  0  0  0
   43.4270   32.8232   40.3819 H   0  0  0  0  0  0  0  0  0  0  0  0
   43.0545   32.2660   42.0387 H   0  0  0  0  0  0  0  0  0  0  0  0
   42.8388   35.5871   42.5323 H   0  0  0  0  0  0  0  0  0  0  0  0
   44.6995   37.0496   43.3898 H   0  0  0  0  0  0  0  0  0  0  0  0
   47.4020   31.9311   41.8563 H   0  0  0  0  0  0  0  0  0  0  0  0
   49.8109   31.2193   41.8214 H   0  0  0  0  0  0  0  0  0  0  0  0
   51.4824   32.9910   42.2436 H   0  0  0  0  0  0  0  0  0  0  0  0
   50.9283   35.3629   42.6792 H   0  0  0  0  0  0  0  0  0  0  0  0
   41.4113   33.8526   42.3516 H   0  0  0  0  0  0  0  0  0  0  0  0
   42.1349   34.9507   41.0809 H   0  0  0  0  0  0  0  0  0  0  0  0
   40.2740   31.7922   39.4561 H   0  0  0  0  0  0  0  0  0  0  0  0
   40.6181   31.4811   41.1140 H   0  0  0  0  0  0  0  0  0  0  0  0
   38.1551   32.0598   40.8613 H   0  0  0  0  0  0  0  0  0  0  0  0
   38.9883   33.4273   41.7310 H   0  0  0  0  0  0  0  0  0  0  0  0
   37.7653   33.2624   39.0957 H   0  0  0  0  0  0  0  0  0  0  0  0
   37.9506   34.6191   40.3809 H   0  0  0  0  0  0  0  0  0  0  0  0
   39.0488   35.1645   38.1205 H   0  0  0  0  0  0  0  0  0  0  0  0
   40.6783   37.1413   37.8635 H   0  0  0  0  0  0  0  0  0  0  0  0
   41.9840   36.8874   36.6563 H   0  0  0  0  0  0  0  0  0  0  0  0
   40.5406   35.8182   36.6563 H   0  0  0  0  0  0  0  0  0  0  0  0
  1  2  1  0
  2  3  2  0
  3  4  1  0
  5  4  2  0
  6  5  1  0
  7  2  1  0
  7  6  2  0
  8  6  1  0
  8 13  1  0
  9  8  2  0
 10  9  1  0
 10 11  2  0
 11 12  1  0
 12 13  2  0
 14  1  1  0
 15 14  1  0
 16 15  1  0
 16 17  1  0
 18 17  1  0
 19 20  2  0
 19 18  1  0
 20 15  1  0
 21 20  1  0
 22 21  1  0
  1 23  1  0
  1 24  1  0
  3 25  1  0
  4 26  1  0
  9 27  1  0
 10 28  1  0
 11 29  1  0
 12 30  1  0
 14 31  1  0
 14 32  1  0
 16 33  1  0
 16 34  1  0
 17 35  1  0
 17 36  1  0
 18 37  1  0
 18 38  1  0
 19 39  1  0
 22 40  1  0
 22 41  1  0
 22 42  1  0
M  ISO  8  23   8  24   8  25  14  26  14  27  14  28  14  29  14  30  14
M  ISO  8  31   8  32   8  33  13  34  13  35  13  36  13  37  13  38  13
M  ISO  4  39  13  40   8  41   8  42   8
M  END
>  <minimizedAffinity>  (1) 
-5.43237019

>  <minimizedRMSD>  (1) 
0.174579009

$$$$
