
     RDKit          3D

 26 27  0  0  0  0  0  0  0  0999 V2000
   44.5570   35.9620   44.5260 C   0  0  0  0  0  0  0  0  0  0  0  0
   45.1890   35.9090   43.2750 C   0  0  0  0  0  0  0  0  0  0  0  0
   46.1020   34.8800   43.0430 C   0  0  0  0  0  0  0  0  0  0  0  0
   46.3360   33.9740   44.0460 N   0  0  0  0  0  0  0  0  0  0  0  0
   45.7120   34.0590   45.2250 C   0  0  0  0  0  0  0  0  0  0  0  0
   44.8300   35.0340   45.4800 N   0  0  0  0  0  0  0  0  0  0  0  0
   45.9970   33.0680   46.2600 C   0  0  0  0  0  0  0  0  0  0  0  0
   47.0130   32.1430   46.0910 C   0  0  0  0  0  0  0  0  0  0  0  0
   47.2200   31.2370   47.1170 C   0  0  0  0  0  0  0  0  0  0  0  0
   46.4850   31.1980   48.2850 C   0  0  0  0  0  0  0  0  0  0  0  0
   45.4600   32.1340   48.4520 C   0  0  0  0  0  0  0  0  0  0  0  0
   45.2680   33.0220   47.4300 C   0  0  0  0  0  0  0  0  0  0  0  0
   46.7140   34.8480   41.8020 O   0  0  0  0  0  0  0  0  0  0  0  0
   48.6900   33.2470   41.0840 O   0  0  0  0  0  0  0  0  0  0  0  0
   48.4020   34.6050   41.7170 P   0  0  0  0  0  0  0  0  0  0  0  0
   49.0750   35.8500   40.8190 O   0  0  0  0  0  0  0  0  0  0  0  0
   48.9940   34.5770   43.3020 O   0  0  0  0  0  0  0  0  0  0  0  0
   43.8331   36.7629   44.7368 H   0  0  0  0  0  0  0  0  0  0  0  0
   44.9710   36.6575   42.4989 H   0  0  0  0  0  0  0  0  0  0  0  0
   47.6296   32.1285   45.1802 H   0  0  0  0  0  0  0  0  0  0  0  0
   48.0251   30.4977   46.9932 H   0  0  0  0  0  0  0  0  0  0  0  0
   46.7000   30.4508   49.0631 H   0  0  0  0  0  0  0  0  0  0  0  0
   44.8392   32.1551   49.3598 H   0  0  0  0  0  0  0  0  0  0  0  0
   44.4638   33.7626   47.5513 H   0  0  0  0  0  0  0  0  0  0  0  0
   49.4453   36.5350   41.4303 H   0  0  0  0  0  0  0  0  0  0  0  0
   48.2362   34.6128   43.9380 H   0  0  0  0  0  0  0  0  0  0  0  0
  1  6  2  0
  2  1  1  0
  3  2  2  0
  3  4  1  0
  4  5  2  0
  5  6  1  0
  5  7  1  0
  7 12  1  0
  8  7  2  0
  8  9  1  0
  9 10  2  0
 10 11  1  0
 12 11  2  0
 13  3  1  0
 14 15  2  0
 15 13  1  0
 15 17  1  0
 16 15  1  0
  1 18  1  0
  2 19  1  0
  8 20  1  0
  9 21  1  0
 10 22  1  0
 11 23  1  0
 12 24  1  0
 16 25  1  0
 17 26  1  0
M  ISO  8  18  14  19  14  20  14  21  14  22  14  23  14  24  14  25   3
M  ISO  1  26   3
M  END
>  <minimizedAffinity>  (1) 
-5.87906504

>  <minimizedRMSD>  (1) 
0.439000487

$$$$
