
     RDKit          3D

 22 22  0  0  0  0  0  0  0  0999 V2000
   44.5820   35.6280   44.7970 C   0  0  0  0  0  0  0  0  0  0  0  0
   45.1580   35.6990   43.5180 C   0  0  0  0  0  0  0  0  0  0  0  0
   46.1690   34.7960   43.2000 C   0  0  0  0  0  0  0  0  0  0  0  0
   46.5560   33.8830   44.1380 N   0  0  0  0  0  0  0  0  0  0  0  0
   45.9890   33.8320   45.3600 C   0  0  0  0  0  0  0  0  0  0  0  0
   45.0070   34.7080   45.6760 N   0  0  0  0  0  0  0  0  0  0  0  0
   46.7230   34.8870   41.9260 O   0  0  0  0  0  0  0  0  0  0  0  0
   48.5990   33.1890   41.1750 O   0  0  0  0  0  0  0  0  0  0  0  0
   48.4130   34.6030   41.7290 P   0  0  0  0  0  0  0  0  0  0  0  0
   49.0240   35.7510   40.6850 O   0  0  0  0  0  0  0  0  0  0  0  0
   49.1100   34.6680   43.2610 O   0  0  0  0  0  0  0  0  0  0  0  0
   46.4550   32.8630   46.2490 O   0  0  0  0  0  0  0  0  0  0  0  0
   44.8350   31.3130   47.5250 O   0  0  0  0  0  0  0  0  0  0  0  0
   45.5570   32.6460   47.7020 P   0  0  0  0  0  0  0  0  0  0  0  0
   44.3960   33.8940   47.7400 O   0  0  0  0  0  0  0  0  0  0  0  0
   46.5030   32.6770   49.0730 O   0  0  0  0  0  0  0  0  0  0  0  0
   43.7813   36.3278   45.0783 H   0  0  0  0  0  0  0  0  0  0  0  0
   44.8194   36.4480   42.7870 H   0  0  0  0  0  0  0  0  0  0  0  0
   49.4194   36.4940   41.2063 H   0  0  0  0  0  0  0  0  0  0  0  0
   48.4013   34.6019   43.9491 H   0  0  0  0  0  0  0  0  0  0  0  0
   44.1855   34.1203   48.6805 H   0  0  0  0  0  0  0  0  0  0  0  0
   45.9227   32.6580   49.8749 H   0  0  0  0  0  0  0  0  0  0  0  0
  1  6  2  0
  2  1  1  0
  3  2  2  0
  3  4  1  0
  4  5  2  0
  5  6  1  0
  5 12  1  0
  7  3  1  0
  8  9  2  0
  9  7  1  0
  9 11  1  0
 10  9  1  0
 12 14  1  0
 13 14  2  0
 14 15  1  0
 14 16  1  0
  1 17  1  0
  2 18  1  0
 10 19  1  0
 11 20  1  0
 15 21  1  0
 16 22  1  0
M  ISO  6  17  14  18  14  19   3  20   3  21   3  22   3
M  END
>  <minimizedAffinity>  (1) 
-5.51787138

>  <minimizedRMSD>  (1) 
0.640534699

$$$$
