
     RDKit          3D

 22 22  0  0  0  0  0  0  0  0999 V2000
   44.5900   35.6610   44.8080 C   0  0  0  0  0  0  0  0  0  0  0  0
   45.1790   35.7860   43.5220 C   0  0  0  0  0  0  0  0  0  0  0  0
   46.1600   34.8730   43.1590 C   0  0  0  0  0  0  0  0  0  0  0  0
   46.5110   33.9050   44.0500 N   0  0  0  0  0  0  0  0  0  0  0  0
   45.9440   33.8000   45.2650 C   0  0  0  0  0  0  0  0  0  0  0  0
   44.9950   34.6680   45.6380 N   0  0  0  0  0  0  0  0  0  0  0  0
   46.7260   35.0060   41.9040 O   0  0  0  0  0  0  0  0  0  0  0  0
   48.5320   33.2660   41.1100 O   0  0  0  0  0  0  0  0  0  0  0  0
   48.3890   34.6610   41.6820 P   0  0  0  0  0  0  0  0  0  0  0  0
   49.0680   35.8290   40.6940 O   0  0  0  0  0  0  0  0  0  0  0  0
   49.1080   34.6560   43.2270 O   0  0  0  0  0  0  0  0  0  0  0  0
   46.3360   32.7370   46.2290 C   0  0  0  0  0  0  0  0  0  0  0  0
   45.4060   32.7870   47.4320 C   0  0  0  0  0  0  0  0  0  0  0  0
   43.8092   36.3660   45.1293 H   0  0  0  0  0  0  0  0  0  0  0  0
   44.8667   36.5841   42.8324 H   0  0  0  0  0  0  0  0  0  0  0  0
   49.4788   36.5356   41.2526 H   0  0  0  0  0  0  0  0  0  0  0  0
   48.4010   34.6609   43.9200 H   0  0  0  0  0  0  0  0  0  0  0  0
   46.2578   31.7529   45.7438 H   0  0  0  0  0  0  0  0  0  0  0  0
   47.3737   32.8985   46.5563 H   0  0  0  0  0  0  0  0  0  0  0  0
   46.0007   32.7550   48.3568 H   0  0  0  0  0  0  0  0  0  0  0  0
   44.8206   33.7179   47.4045 H   0  0  0  0  0  0  0  0  0  0  0  0
   44.7242   31.9242   47.4045 H   0  0  0  0  0  0  0  0  0  0  0  0
  1  6  2  0
  2  1  1  0
  3  2  2  0
  3  4  1  0
  4  5  2  0
  5  6  1  0
  5 12  1  0
  7  3  1  0
  8  9  2  0
  9  7  1  0
  9 11  1  0
 10  9  1  0
 12 13  1  0
  1 14  1  0
  2 15  1  0
 10 16  1  0
 11 17  1  0
 12 18  1  0
 12 19  1  0
 13 20  1  0
 13 21  1  0
 13 22  1  0
M  ISO  8  14  14  15  14  16   3  17   3  18   8  19   8  20   8  21   8
M  ISO  1  22   8
M  END
>  <minimizedAffinity>  (1) 
-4.6896863

>  <minimizedRMSD>  (1) 
0.492190152

$$$$
