
     RDKit          3D

 28 29  0  0  1  0  0  0  0  0999 V2000
   44.5830   35.6030   44.7670 C   0  0  0  0  0  0  0  0  0  0  0  0
   45.1530   35.7410   43.4790 C   0  0  0  0  0  0  0  0  0  0  0  0
   46.1940   34.8730   43.1540 C   0  0  0  0  0  0  0  0  0  0  0  0
   46.6040   33.9580   44.0620 N   0  0  0  0  0  0  0  0  0  0  0  0
   46.0370   33.8550   45.2800 C   0  0  0  0  0  0  0  0  0  0  0  0
   45.0270   34.6780   45.6300 N   0  0  0  0  0  0  0  0  0  0  0  0
   45.3780   32.5340   47.3010 C   0  0  1  0  0  0  0  0  0  0  0  0
   46.4530   32.8770   46.2910 C   0  0  1  0  0  0  0  0  0  0  0  0
   46.6190   31.4830   45.6710 C   0  0  0  0  0  0  0  0  0  0  0  0
   46.3670   30.5690   46.6510 O   0  0  0  0  0  0  0  0  0  0  0  0
   45.9720   31.2210   47.8090 C   0  0  0  0  0  0  0  0  0  0  0  0
   45.2290   33.4760   48.2920 O   0  0  0  0  0  0  0  0  0  0  0  0
   46.7500   35.0120   41.8920 O   0  0  0  0  0  0  0  0  0  0  0  0
   48.5800   33.2500   41.1330 O   0  0  0  0  0  0  0  0  0  0  0  0
   48.4150   34.6780   41.6530 P   0  0  0  0  0  0  0  0  0  0  0  0
   49.0430   35.7980   40.5940 O   0  0  0  0  0  0  0  0  0  0  0  0
   49.1610   34.7710   43.1740 O   0  0  0  0  0  0  0  0  0  0  0  0
   43.7593   36.2679   45.0660 H   0  0  0  0  0  0  0  0  0  0  0  0
   44.7913   36.4980   42.7676 H   0  0  0  0  0  0  0  0  0  0  0  0
   44.3544   32.4801   46.9019 H   0  0  0  0  0  0  0  0  0  0  0  0
   47.3477   33.3501   46.7218 H   0  0  0  0  0  0  0  0  0  0  0  0
   45.9069   31.3525   44.8428 H   0  0  0  0  0  0  0  0  0  0  0  0
   47.6356   31.3539   45.2712 H   0  0  0  0  0  0  0  0  0  0  0  0
   46.8335   31.4088   48.4667 H   0  0  0  0  0  0  0  0  0  0  0  0
   45.2593   30.6338   48.4068 H   0  0  0  0  0  0  0  0  0  0  0  0
   45.2983   33.0377   49.1770 H   0  0  0  0  0  0  0  0  0  0  0  0
   49.4580   36.5381   41.1041 H   0  0  0  0  0  0  0  0  0  0  0  0
   48.4758   34.6856   43.8834 H   0  0  0  0  0  0  0  0  0  0  0  0
  1  6  2  0
  2  1  1  0
  3  2  2  0
  3  4  1  0
  4  5  2  0
  5  6  1  0
  7 11  1  0
  7 12  1  0
  8  5  1  0
  8  7  1  0
  9  8  1  0
  9 10  1  0
 10 11  1  0
 13  3  1  0
 14 15  2  0
 15 13  1  0
 15 17  1  0
 16 15  1  0
  1 18  1  0
  2 19  1  0
  7 20  1  6
  8 21  1  1
  9 22  1  0
  9 23  1  0
 11 24  1  0
 11 25  1  0
 12 26  1  0
 16 27  1  0
 17 28  1  0
M  ISO  8  18  14  19  14  20  13  21  13  22  13  23  13  24  13  25  13
M  ISO  3  26   3  27   3  28   3
M  END
>  <minimizedAffinity>  (1) 
-5.84483004

>  <minimizedRMSD>  (1) 
0.592854321

$$$$
