
     RDKit          3D

 18 18  0  0  0  0  0  0  0  0999 V2000
   46.4690   34.3110   42.9980 C   0  0  0  0  0  0  0  0  0  0  0  0
   47.3410   33.3950   43.5810 C   0  0  0  0  0  0  0  0  0  0  0  0
   47.1180   33.0540   44.9130 C   0  0  0  0  0  0  0  0  0  0  0  0
   46.0740   33.6200   45.5890 N   0  0  0  0  0  0  0  0  0  0  0  0
   45.2610   34.5010   44.9830 C   0  0  0  0  0  0  0  0  0  0  0  0
   45.4570   34.8530   43.6770 N   0  0  0  0  0  0  0  0  0  0  0  0
   46.3770   34.8640   41.6900 N   0  0  0  0  0  0  0  0  0  0  0  0
   48.3450   32.9150   42.7760 O   0  0  0  0  0  0  0  0  0  0  0  0
   50.8860   33.0940   42.0640 O   0  0  0  0  0  0  0  0  0  0  0  0
   49.6410   33.9050   42.2600 P   0  0  0  0  0  0  0  0  0  0  0  0
   49.2530   34.6390   40.7880 O   0  0  0  0  0  0  0  0  0  0  0  0
   49.9610   35.1320   43.3890 O   0  0  0  0  0  0  0  0  0  0  0  0
   47.7783   32.3334   45.4177 H   0  0  0  0  0  0  0  0  0  0  0  0
   44.4264   34.9451   45.5453 H   0  0  0  0  0  0  0  0  0  0  0  0
   45.6347   35.5430   41.4690 H   0  0  0  0  0  0  0  0  0  0  0  0
   47.0527   34.5853   40.9643 H   0  0  0  0  0  0  0  0  0  0  0  0
   48.7973   35.5011   40.9591 H   0  0  0  0  0  0  0  0  0  0  0  0
   49.8666   34.7699   44.3056 H   0  0  0  0  0  0  0  0  0  0  0  0
  1  2  2  0
  1  6  1  0
  2  3  1  0
  3  4  2  0
  5  4  1  0
  6  5  2  0
  7  1  1  0
  8  2  1  0
  9 10  2  0
 10  8  1  0
 10 12  1  0
 11 10  1  0
  3 13  1  0
  5 14  1  0
  7 15  1  0
  7 16  1  0
 11 17  1  0
 12 18  1  0
M  ISO  4  13  14  14  14  17   3  18   3
M  END
>  <minimizedAffinity>  (1) 
-4.06468439

>  <minimizedRMSD>  (1) 
0.928893745

$$$$
