
     RDKit          3D

 19 19  0  0  0  0  0  0  0  0999 V2000
   46.1050   34.3640   43.0970 C   0  0  0  0  0  0  0  0  0  0  0  0
   47.0830   33.4540   43.4950 C   0  0  0  0  0  0  0  0  0  0  0  0
   47.1430   33.0070   44.8510 C   0  0  0  0  0  0  0  0  0  0  0  0
   46.2260   33.5020   45.7180 N   0  0  0  0  0  0  0  0  0  0  0  0
   45.3070   34.3800   45.2960 C   0  0  0  0  0  0  0  0  0  0  0  0
   45.2380   34.8040   44.0220 N   0  0  0  0  0  0  0  0  0  0  0  0
   45.6590   34.9600   41.8110 C   0  0  0  0  0  0  0  0  0  0  0  0
   47.9580   33.0600   42.4830 O   0  0  0  0  0  0  0  0  0  0  0  0
   50.5110   33.0900   41.7830 O   0  0  0  0  0  0  0  0  0  0  0  0
   49.3610   33.9770   42.1210 P   0  0  0  0  0  0  0  0  0  0  0  0
   49.0870   34.9690   40.7920 O   0  0  0  0  0  0  0  0  0  0  0  0
   49.7960   35.0200   43.3840 O   0  0  0  0  0  0  0  0  0  0  0  0
   47.9065   32.2865   45.1797 H   0  0  0  0  0  0  0  0  0  0  0  0
   44.5784   34.7704   46.0218 H   0  0  0  0  0  0  0  0  0  0  0  0
   45.0112   35.8257   42.0132 H   0  0  0  0  0  0  0  0  0  0  0  0
   46.5369   35.2859   41.2339 H   0  0  0  0  0  0  0  0  0  0  0  0
   45.0987   34.2096   41.2339 H   0  0  0  0  0  0  0  0  0  0  0  0
   48.8367   35.8751   41.1026 H   0  0  0  0  0  0  0  0  0  0  0  0
   49.6129   34.5811   44.2523 H   0  0  0  0  0  0  0  0  0  0  0  0
  1  2  2  0
  1  6  1  0
  2  3  1  0
  3  4  2  0
  5  4  1  0
  6  5  2  0
  7  1  1  0
  8  2  1  0
  9 10  2  0
 10  8  1  0
 10 12  1  0
 11 10  1  0
  3 13  1  0
  5 14  1  0
  7 15  1  0
  7 16  1  0
  7 17  1  0
 11 18  1  0
 12 19  1  0
M  ISO  7  13  14  14  14  15   8  16   8  17   8  18   3  19   3
M  END
>  <minimizedAffinity>  (1) 
-3.93099594

>  <minimizedRMSD>  (1) 
0.98977983

$$$$
