
     RDKit          3D

 26 28  0  0  1  0  0  0  0  0999 V2000
   47.4180   34.3270   41.1070 C   0  0  1  0  0  0  0  0  0  0  0  0
   48.3180   35.5560   41.4560 C   0  0  0  0  0  0  0  0  0  0  0  0
   48.4600   34.2250   42.0990 C   0  0  2  0  0  0  0  0  0  0  0  0
   49.6190   33.3510   41.7960 C   0  0  0  0  0  0  0  0  0  0  0  0
   50.8470   33.4620   42.4250 C   0  0  0  0  0  0  0  0  0  0  0  0
   51.6700   32.5250   41.9200 N   0  0  0  0  0  0  0  0  0  0  0  0
   50.9720   31.8410   40.9920 C   0  0  0  0  0  0  0  0  0  0  0  0
   49.7240   32.3380   40.9130 N   0  0  0  0  0  0  0  0  0  0  0  0
   45.9960   34.5250   41.5080 C   0  0  0  0  0  0  0  0  0  0  0  0
   45.1440   34.4330   40.6180 O   0  0  0  0  0  0  0  0  0  0  0  0
   45.0990   36.0160   43.2290 C   0  0  0  0  0  0  0  0  0  0  0  0
   45.5760   34.7980   42.8420 C   0  0  0  0  0  0  0  0  0  0  0  0
   45.6330   33.7780   43.8100 C   0  0  0  0  0  0  0  0  0  0  0  0
   45.2200   34.0210   45.0770 N   0  0  0  0  0  0  0  0  0  0  0  0
   44.7470   35.2550   45.4290 C   0  0  0  0  0  0  0  0  0  0  0  0
   44.6960   36.2110   44.5120 N   0  0  0  0  0  0  0  0  0  0  0  0
   47.1644   33.7021   40.2380 H   0  0  0  0  0  0  0  0  0  0  0  0
   49.0740   35.9166   40.7429 H   0  0  0  0  0  0  0  0  0  0  0  0
   48.1598   36.5917   41.7912 H   0  0  0  0  0  0  0  0  0  0  0  0
   48.4891   33.9236   43.1565 H   0  0  0  0  0  0  0  0  0  0  0  0
   51.1061   34.1925   43.2055 H   0  0  0  0  0  0  0  0  0  0  0  0
   52.6499   32.3612   42.1917 H   0  0  0  0  0  0  0  0  0  0  0  0
   51.3621   31.0057   40.3920 H   0  0  0  0  0  0  0  0  0  0  0  0
   45.0406   36.8401   42.5027 H   0  0  0  0  0  0  0  0  0  0  0  0
   46.0133   32.7825   43.5375 H   0  0  0  0  0  0  0  0  0  0  0  0
   44.4135   35.4515   46.4586 H   0  0  0  0  0  0  0  0  0  0  0  0
  1  2  1  0
  1  9  1  0
  1  3  1  0
  2  3  1  0
  4  3  1  0
  4  5  2  0
  6  5  1  0
  7  6  1  0
  8  7  2  0
  8  4  1  0
  9 12  1  0
 10  9  2  0
 11 16  2  0
 12 11  1  0
 12 13  2  0
 13 14  1  0
 14 15  2  0
 16 15  1  0
  1 17  1  6
  2 18  1  0
  2 19  1  0
  3 20  1  1
  5 21  1  0
  6 22  1  0
  7 23  1  0
 11 24  1  0
 13 25  1  0
 15 26  1  0
M  ISO  8  17  13  18  13  19  13  20  13  21  14  22   9  23  14  24  14
M  ISO  2  25  14  26  14
M  END
>  <minimizedAffinity>  (1) 
-5.05549288

>  <minimizedRMSD>  (1) 
1.47954381

$$$$
