
     RDKit          3D

 23 24  0  0  0  0  0  0  0  0999 V2000
   45.2510   36.1810   43.2250 C   0  0  0  0  0  0  0  0  0  0  0  0
   45.8640   34.9570   42.9180 C   0  0  0  0  0  0  0  0  0  0  0  0
   45.8490   33.9610   43.8640 C   0  0  0  0  0  0  0  0  0  0  0  0
   45.2530   34.1830   45.0480 N   0  0  0  0  0  0  0  0  0  0  0  0
   44.6580   35.3770   45.3410 C   0  0  0  0  0  0  0  0  0  0  0  0
   44.6710   36.3360   44.4310 N   0  0  0  0  0  0  0  0  0  0  0  0
   46.4880   32.6860   43.5420 C   0  0  0  0  0  0  0  0  0  0  0  0
   45.7150   31.6260   43.0900 C   0  0  0  0  0  0  0  0  0  0  0  0
   46.3580   30.4440   42.7980 C   0  0  0  0  0  0  0  0  0  0  0  0
   47.7330   30.2540   42.9310 C   0  0  0  0  0  0  0  0  0  0  0  0
   48.4400   31.3600   43.3900 C   0  0  0  0  0  0  0  0  0  0  0  0
   47.8120   32.5150   43.6750 N   0  0  0  0  0  0  0  0  0  0  0  0
   46.4820   34.7850   41.6390 C   0  0  0  0  0  0  0  0  0  0  0  0
   47.6900   35.0970   41.5040 O   0  0  0  0  0  0  0  0  0  0  0  0
   45.7920   34.2740   40.4920 N   0  0  0  0  0  0  0  0  0  0  0  0
   45.2441   37.0014   42.4923 H   0  0  0  0  0  0  0  0  0  0  0  0
   44.1765   35.5379   46.3168 H   0  0  0  0  0  0  0  0  0  0  0  0
   44.6263   31.7265   42.9692 H   0  0  0  0  0  0  0  0  0  0  0  0
   45.7512   29.5998   42.4386 H   0  0  0  0  0  0  0  0  0  0  0  0
   48.2227   29.2989   42.6904 H   0  0  0  0  0  0  0  0  0  0  0  0
   49.5298   31.2893   43.5221 H   0  0  0  0  0  0  0  0  0  0  0  0
   46.2887   34.1716   39.5955 H   0  0  0  0  0  0  0  0  0  0  0  0
   44.7993   34.0090   40.5639 H   0  0  0  0  0  0  0  0  0  0  0  0
  1  6  2  0
  2  1  1  0
  2  3  2  0
  3  4  1  0
  4  5  2  0
  6  5  1  0
  7 12  1  0
  7  3  1  0
  8  7  2  0
  9 10  2  0
  9  8  1  0
 10 11  1  0
 11 12  2  0
 13  2  1  0
 14 13  2  0
 15 13  1  0
  1 16  1  0
  5 17  1  0
  8 18  1  0
  9 19  1  0
 10 20  1  0
 11 21  1  0
 15 22  1  0
 15 23  1  0
M  ISO  6  16  14  17  14  18  14  19  14  20  14  21  14
M  END
>  <minimizedAffinity>  (1) 
-3.95775056

>  <minimizedRMSD>  (1) 
0.149944216

$$$$
