
     RDKit          3D

 28 30  0  0  0  0  0  0  0  0999 V2000
   45.3140   36.2110   43.3420 C   0  0  0  0  0  0  0  0  0  0  0  0
   45.9250   34.9880   43.0250 C   0  0  0  0  0  0  0  0  0  0  0  0
   45.8490   33.9740   43.9610 C   0  0  0  0  0  0  0  0  0  0  0  0
   45.2040   34.1800   45.1290 N   0  0  0  0  0  0  0  0  0  0  0  0
   44.6170   35.3830   45.4130 C   0  0  0  0  0  0  0  0  0  0  0  0
   44.6850   36.3580   44.5220 N   0  0  0  0  0  0  0  0  0  0  0  0
   46.4820   32.6830   43.6520 C   0  0  0  0  0  0  0  0  0  0  0  0
   45.6990   31.6050   43.3010 C   0  0  0  0  0  0  0  0  0  0  0  0
   46.3300   30.4130   43.0180 C   0  0  0  0  0  0  0  0  0  0  0  0
   47.7220   30.2510   43.0730 C   0  0  0  0  0  0  0  0  0  0  0  0
   48.4420   31.3770   43.4340 C   0  0  0  0  0  0  0  0  0  0  0  0
   47.8120   32.5370   43.7080 N   0  0  0  0  0  0  0  0  0  0  0  0
   46.5960   34.8080   41.7840 C   0  0  0  0  0  0  0  0  0  0  0  0
   47.7470   35.2930   41.6570 O   0  0  0  0  0  0  0  0  0  0  0  0
   46.0330   34.0960   40.6400 C   0  0  0  0  0  0  0  0  0  0  0  0
   46.8310   33.4800   39.6850 C   0  0  0  0  0  0  0  0  0  0  0  0
   46.0080   32.8860   38.7240 C   0  0  0  0  0  0  0  0  0  0  0  0
   44.7180   33.1910   39.1760 C   0  0  0  0  0  0  0  0  0  0  0  0
   44.7980   33.8870   40.2810 O   0  0  0  0  0  0  0  0  0  0  0  0
   45.3493   37.0468   42.6278 H   0  0  0  0  0  0  0  0  0  0  0  0
   44.0957   35.5370   46.3693 H   0  0  0  0  0  0  0  0  0  0  0  0
   44.6038   31.6931   43.2483 H   0  0  0  0  0  0  0  0  0  0  0  0
   45.7126   29.5475   42.7356 H   0  0  0  0  0  0  0  0  0  0  0  0
   48.2098   29.2920   42.8443 H   0  0  0  0  0  0  0  0  0  0  0  0
   49.5389   31.3247   43.4979 H   0  0  0  0  0  0  0  0  0  0  0  0
   47.9309   33.4624   39.6848 H   0  0  0  0  0  0  0  0  0  0  0  0
   46.3021   32.3170   37.8297 H   0  0  0  0  0  0  0  0  0  0  0  0
   43.7832   32.8920   38.6794 H   0  0  0  0  0  0  0  0  0  0  0  0
  1  6  2  0
  2  1  1  0
  2  3  2  0
  3  4  1  0
  4  5  2  0
  6  5  1  0
  7 12  1  0
  7  3  1  0
  8  7  2  0
  9 10  2  0
  9  8  1  0
 10 11  1  0
 11 12  2  0
 13  2  1  0
 14 13  2  0
 15 13  1  0
 16 15  2  0
 17 18  2  0
 17 16  1  0
 18 19  1  0
 19 15  1  0
  1 20  1  0
  5 21  1  0
  8 22  1  0
  9 23  1  0
 10 24  1  0
 11 25  1  0
 16 26  1  0
 17 27  1  0
 18 28  1  0
M  ISO  8  20  14  21  14  22  14  23  14  24  14  25  14  26  14  27  14
M  ISO  1  28  14
M  END
>  <minimizedAffinity>  (1) 
-4.31160116

>  <minimizedRMSD>  (1) 
0.256548524

$$$$
