
     RDKit          3D

 49 53  0  0  1  0  0  0  0  0999 V2000
   47.0000   33.3840   43.0050 C   0  0  0  0  0  0  0  0  0  0  0  0
   48.0620   33.0310   43.5880 O   0  0  0  0  0  0  0  0  0  0  0  0
   46.6040   32.9450   41.6950 N   0  0  0  0  0  0  0  0  0  0  0  0
   45.3210   32.4790   41.1960 C   0  0  0  0  0  0  0  0  0  0  0  0
   44.9680   33.2860   39.9300 C   0  0  0  0  0  0  0  0  0  0  0  0
   45.9720   32.9670   38.8490 C   0  0  0  0  0  0  0  0  0  0  0  0
   47.1740   32.2890   39.4410 C   0  0  0  0  0  0  0  0  0  0  0  0
   47.6520   32.9730   40.6950 C   0  0  2  0  0  0  0  0  0  0  0  0
   50.0760   33.1420   41.4790 C   0  0  0  0  0  0  0  0  0  0  0  0
   48.9440   32.4220   41.1460 C   0  0  0  0  0  0  0  0  0  0  0  0
   49.1190   31.0370   41.2770 C   0  0  0  0  0  0  0  0  0  0  0  0
   50.2550   30.4110   41.6830 C   0  0  0  0  0  0  0  0  0  0  0  0
   51.3470   31.1670   42.0000 C   0  0  0  0  0  0  0  0  0  0  0  0
   51.2440   32.5370   41.8930 C   0  0  0  0  0  0  0  0  0  0  0  0
   52.3360   30.2680   42.3710 O   0  0  0  0  0  0  0  0  0  0  0  0
   51.8420   28.9620   42.3780 C   0  0  0  0  0  0  0  0  0  0  0  0
   50.5360   29.0640   41.8470 O   0  0  0  0  0  0  0  0  0  0  0  0
   45.7440   35.4860   43.0610 C   0  0  0  0  0  0  0  0  0  0  0  0
   46.1240   34.2940   43.7060 C   0  0  0  0  0  0  0  0  0  0  0  0
   45.6500   34.0330   44.9810 C   0  0  0  0  0  0  0  0  0  0  0  0
   44.8360   34.9400   45.5590 N   0  0  0  0  0  0  0  0  0  0  0  0
   44.4660   36.0940   44.9420 C   0  0  0  0  0  0  0  0  0  0  0  0
   44.9300   36.3450   43.7000 N   0  0  0  0  0  0  0  0  0  0  0  0
   46.0530   32.8040   45.6320 C   0  0  0  0  0  0  0  0  0  0  0  0
   45.5790   31.6070   45.1840 C   0  0  0  0  0  0  0  0  0  0  0  0
   45.9690   30.4440   45.8100 C   0  0  0  0  0  0  0  0  0  0  0  0
   46.8410   30.4360   46.8980 C   0  0  0  0  0  0  0  0  0  0  0  0
   47.2940   31.6870   47.3120 C   0  0  0  0  0  0  0  0  0  0  0  0
   46.8850   32.7890   46.6700 N   0  0  0  0  0  0  0  0  0  0  0  0
   45.3852   31.4091   40.9485 H   0  0  0  0  0  0  0  0  0  0  0  0
   44.5443   32.6194   41.9621 H   0  0  0  0  0  0  0  0  0  0  0  0
   43.9586   33.0133   39.5882 H   0  0  0  0  0  0  0  0  0  0  0  0
   44.9938   34.3623   40.1557 H   0  0  0  0  0  0  0  0  0  0  0  0
   46.2861   33.8999   38.3581 H   0  0  0  0  0  0  0  0  0  0  0  0
   45.5062   32.2941   38.1139 H   0  0  0  0  0  0  0  0  0  0  0  0
   46.9108   31.2487   39.6830 H   0  0  0  0  0  0  0  0  0  0  0  0
   47.9864   32.3341   38.7007 H   0  0  0  0  0  0  0  0  0  0  0  0
   47.8585   34.0339   40.4903 H   0  0  0  0  0  0  0  0  0  0  0  0
   50.0439   34.2394   41.4112 H   0  0  0  0  0  0  0  0  0  0  0  0
   48.2582   30.3988   41.0285 H   0  0  0  0  0  0  0  0  0  0  0  0
   52.1135   33.1624   42.1436 H   0  0  0  0  0  0  0  0  0  0  0  0
   52.4654   28.3091   41.7494 H   0  0  0  0  0  0  0  0  0  0  0  0
   51.8456   28.5234   43.3868 H   0  0  0  0  0  0  0  0  0  0  0  0
   46.1079   35.7119   42.0478 H   0  0  0  0  0  0  0  0  0  0  0  0
   43.8004   36.8100   45.4463 H   0  0  0  0  0  0  0  0  0  0  0  0
   44.8893   31.5703   44.3278 H   0  0  0  0  0  0  0  0  0  0  0  0
   45.5780   29.4856   45.4378 H   0  0  0  0  0  0  0  0  0  0  0  0
   47.1504   29.5051   47.3958 H   0  0  0  0  0  0  0  0  0  0  0  0
   47.9855   31.7693   48.1635 H   0  0  0  0  0  0  0  0  0  0  0  0
  1  2  2  0
  1 19  1  0
  3  1  1  0
  4  3  1  0
  5  4  1  0
  6  7  1  0
  6  5  1  0
  7  8  1  0
  8 10  1  0
  8  3  1  0
  9 14  2  0
 10 11  2  0
 10  9  1  0
 11 12  1  0
 12 17  1  0
 12 13  2  0
 13 15  1  0
 14 13  1  0
 15 16  1  0
 17 16  1  0
 18 23  2  0
 18 19  1  0
 19 20  2  0
 20 21  1  0
 20 24  1  0
 22 21  2  0
 23 22  1  0
 24 29  1  0
 25 24  2  0
 25 26  1  0
 26 27  2  0
 27 28  1  0
 29 28  2  0
  4 30  1  0
  4 31  1  0
  5 32  1  0
  5 33  1  0
  6 34  1  0
  6 35  1  0
  7 36  1  0
  7 37  1  0
  8 38  1  6
  9 39  1  0
 11 40  1  0
 14 41  1  0
 16 42  1  0
 16 43  1  0
 18 44  1  0
 22 45  1  0
 25 46  1  0
 26 47  1  0
 27 48  1  0
 28 49  1  0
M  ISO  8  30  13  31  13  32  13  33  13  34  13  35  13  36  13  37  13
M  ISO  8  38  13  39  14  40  14  41  14  42  13  43  13  44  14  45  14
M  ISO  4  46  14  47  14  48  14  49  14
M  END
>  <minimizedAffinity>  (1) 
-5.63218689

>  <minimizedRMSD>  (1) 
1.02164888

$$$$
