
     RDKit          3D

 50 53  0  0  1  0  0  0  0  0999 V2000
   47.1710   33.6630   42.9070 C   0  0  0  0  0  0  0  0  0  0  0  0
   48.3060   33.4920   43.4240 O   0  0  0  0  0  0  0  0  0  0  0  0
   46.7720   33.1240   41.6460 N   0  0  0  0  0  0  0  0  0  0  0  0
   45.5490   32.4520   41.2350 C   0  0  0  0  0  0  0  0  0  0  0  0
   44.9890   33.1300   39.9660 C   0  0  0  0  0  0  0  0  0  0  0  0
   45.9670   32.9390   38.8350 C   0  0  0  0  0  0  0  0  0  0  0  0
   47.2910   32.4650   39.3790 C   0  0  0  0  0  0  0  0  0  0  0  0
   47.7050   33.2590   40.5630 C   0  0  2  0  0  0  0  0  0  0  0  0
   49.0930   33.1290   40.9130 N   0  0  0  0  0  0  0  0  0  0  0  0
   49.2300   31.9140   41.7620 C   0  0  0  0  0  0  0  0  0  0  0  0
   50.6670   31.4550   41.6970 C   0  0  0  0  0  0  0  0  0  0  0  0
   51.4650   32.6870   41.7300 N   0  0  0  0  0  0  0  0  0  0  0  0
   50.7840   33.7300   42.4750 C   0  0  0  0  0  0  0  0  0  0  0  0
   49.5770   34.2610   41.6880 C   0  0  0  0  0  0  0  0  0  0  0  0
   45.8020   35.6890   43.0700 C   0  0  0  0  0  0  0  0  0  0  0  0
   46.2120   34.4560   43.6370 C   0  0  0  0  0  0  0  0  0  0  0  0
   45.6900   34.0600   44.8520 C   0  0  0  0  0  0  0  0  0  0  0  0
   44.7970   34.8710   45.4630 N   0  0  0  0  0  0  0  0  0  0  0  0
   44.3970   36.0530   44.9320 C   0  0  0  0  0  0  0  0  0  0  0  0
   44.9080   36.4390   43.7450 N   0  0  0  0  0  0  0  0  0  0  0  0
   46.1270   32.8000   45.4150 C   0  0  0  0  0  0  0  0  0  0  0  0
   45.7340   31.6270   44.8430 C   0  0  0  0  0  0  0  0  0  0  0  0
   46.1540   30.4320   45.3880 C   0  0  0  0  0  0  0  0  0  0  0  0
   46.9700   30.3670   46.5090 C   0  0  0  0  0  0  0  0  0  0  0  0
   47.3380   31.5960   47.0500 C   0  0  0  0  0  0  0  0  0  0  0  0
   46.9100   32.7360   46.4910 N   0  0  0  0  0  0  0  0  0  0  0  0
   45.7660   31.3952   41.0204 H   0  0  0  0  0  0  0  0  0  0  0  0
   44.8059   32.5177   42.0434 H   0  0  0  0  0  0  0  0  0  0  0  0
   44.0238   32.6743   39.6998 H   0  0  0  0  0  0  0  0  0  0  0  0
   44.8420   34.2040   40.1527 H   0  0  0  0  0  0  0  0  0  0  0  0
   46.1092   33.8950   38.3098 H   0  0  0  0  0  0  0  0  0  0  0  0
   45.5715   32.1873   38.1360 H   0  0  0  0  0  0  0  0  0  0  0  0
   47.2006   31.4082   39.6705 H   0  0  0  0  0  0  0  0  0  0  0  0
   48.0523   32.5896   38.5949 H   0  0  0  0  0  0  0  0  0  0  0  0
   47.6506   34.3174   40.2684 H   0  0  0  0  0  0  0  0  0  0  0  0
   48.9619   32.1536   42.8016 H   0  0  0  0  0  0  0  0  0  0  0  0
   48.5599   31.1198   41.4012 H   0  0  0  0  0  0  0  0  0  0  0  0
   50.8530   30.8994   40.7660 H   0  0  0  0  0  0  0  0  0  0  0  0
   50.9208   30.7778   42.5258 H   0  0  0  0  0  0  0  0  0  0  0  0
   52.3707   32.4894   42.1789 H   0  0  0  0  0  0  0  0  0  0  0  0
   50.4369   33.3199   43.4349 H   0  0  0  0  0  0  0  0  0  0  0  0
   51.4869   34.5588   42.6453 H   0  0  0  0  0  0  0  0  0  0  0  0
   49.8826   35.0811   41.0217 H   0  0  0  0  0  0  0  0  0  0  0  0
   48.7994   34.6634   42.3538 H   0  0  0  0  0  0  0  0  0  0  0  0
   46.2036   36.0255   42.1028 H   0  0  0  0  0  0  0  0  0  0  0  0
   43.6686   36.6858   45.4601 H   0  0  0  0  0  0  0  0  0  0  0  0
   45.0868   31.6335   43.9535 H   0  0  0  0  0  0  0  0  0  0  0  0
   45.8295   29.4930   44.9157 H   0  0  0  0  0  0  0  0  0  0  0  0
   47.3027   29.4112   46.9399 H   0  0  0  0  0  0  0  0  0  0  0  0
   47.9830   31.6312   47.9403 H   0  0  0  0  0  0  0  0  0  0  0  0
  1  2  2  0
  1 16  1  0
  3  1  1  0
  4  3  1  0
  5  4  1  0
  6  7  1  0
  6  5  1  0
  7  8  1  0
  8  9  1  0
  8  3  1  0
  9 14  1  0
  9 10  1  0
 11 12  1  0
 11 10  1  0
 12 13  1  0
 14 13  1  0
 15 16  2  0
 15 20  1  0
 16 17  1  0
 17 21  1  0
 17 18  2  0
 19 18  1  0
 20 19  2  0
 21 26  2  0
 22 23  2  0
 22 21  1  0
 23 24  1  0
 24 25  2  0
 26 25  1  0
  4 27  1  0
  4 28  1  0
  5 29  1  0
  5 30  1  0
  6 31  1  0
  6 32  1  0
  7 33  1  0
  7 34  1  0
  8 35  1  6
 10 36  1  0
 10 37  1  0
 11 38  1  0
 11 39  1  0
 12 40  1  0
 13 41  1  0
 13 42  1  0
 14 43  1  0
 14 44  1  0
 15 45  1  0
 19 46  1  0
 22 47  1  0
 23 48  1  0
 24 49  1  0
 25 50  1  0
M  ISO  8  27  13  28  13  29  13  30  13  31  13  32  13  33  13  34  13
M  ISO  8  35  13  36  13  37  13  38  13  39  13  40   5  41  13  42  13
M  ISO  8  43  13  44  13  45  14  46  14  47  14  48  14  49  14  50  14
M  END
>  <minimizedAffinity>  (1) 
-5.87622976

>  <minimizedRMSD>  (1) 
0.419662327

$$$$
