
     RDKit          3D

 49 53  0  0  1  0  0  0  0  0999 V2000
   47.0050   33.3950   42.9930 C   0  0  0  0  0  0  0  0  0  0  0  0
   48.0670   33.0420   43.5740 O   0  0  0  0  0  0  0  0  0  0  0  0
   46.6110   32.9560   41.6820 N   0  0  0  0  0  0  0  0  0  0  0  0
   45.3300   32.4910   41.1820 C   0  0  0  0  0  0  0  0  0  0  0  0
   44.9740   33.2900   39.9130 C   0  0  0  0  0  0  0  0  0  0  0  0
   45.9930   33.0040   38.8360 C   0  0  0  0  0  0  0  0  0  0  0  0
   47.1810   32.2960   39.4290 C   0  0  0  0  0  0  0  0  0  0  0  0
   47.6600   32.9830   40.6850 C   0  0  2  0  0  0  0  0  0  0  0  0
   50.0850   33.1210   41.4740 C   0  0  0  0  0  0  0  0  0  0  0  0
   48.9450   32.4170   41.1500 C   0  0  0  0  0  0  0  0  0  0  0  0
   49.0840   31.0330   41.2960 C   0  0  0  0  0  0  0  0  0  0  0  0
   50.2190   30.3770   41.7180 C   0  0  0  0  0  0  0  0  0  0  0  0
   50.4690   29.0690   41.8960 N   0  0  0  0  0  0  0  0  0  0  0  0
   51.7410   28.9940   42.3220 C   0  0  0  0  0  0  0  0  0  0  0  0
   52.2690   30.2480   42.4040 N   0  0  0  0  0  0  0  0  0  0  0  0
   51.3230   31.1380   42.0270 C   0  0  0  0  0  0  0  0  0  0  0  0
   51.2420   32.5090   41.9000 C   0  0  0  0  0  0  0  0  0  0  0  0
   45.7490   35.4980   43.0500 C   0  0  0  0  0  0  0  0  0  0  0  0
   46.1270   34.3000   43.6980 C   0  0  0  0  0  0  0  0  0  0  0  0
   45.6520   34.0370   44.9690 C   0  0  0  0  0  0  0  0  0  0  0  0
   44.8370   34.9420   45.5490 N   0  0  0  0  0  0  0  0  0  0  0  0
   44.4670   36.0970   44.9360 C   0  0  0  0  0  0  0  0  0  0  0  0
   44.9320   36.3530   43.6950 N   0  0  0  0  0  0  0  0  0  0  0  0
   46.0560   32.8060   45.6170 C   0  0  0  0  0  0  0  0  0  0  0  0
   45.5850   31.6090   45.1610 C   0  0  0  0  0  0  0  0  0  0  0  0
   45.9790   30.4460   45.7890 C   0  0  0  0  0  0  0  0  0  0  0  0
   46.8420   30.4350   46.8770 C   0  0  0  0  0  0  0  0  0  0  0  0
   47.2880   31.6850   47.2980 C   0  0  0  0  0  0  0  0  0  0  0  0
   46.8850   32.7980   46.6630 N   0  0  0  0  0  0  0  0  0  0  0  0
   45.3944   31.4201   40.9390 H   0  0  0  0  0  0  0  0  0  0  0  0
   44.5537   32.6384   41.9472 H   0  0  0  0  0  0  0  0  0  0  0  0
   43.9751   32.9930   39.5609 H   0  0  0  0  0  0  0  0  0  0  0  0
   44.9765   34.3655   40.1440 H   0  0  0  0  0  0  0  0  0  0  0  0
   46.3215   33.9515   38.3840 H   0  0  0  0  0  0  0  0  0  0  0  0
   45.5367   32.3633   38.0671 H   0  0  0  0  0  0  0  0  0  0  0  0
   46.8965   31.2618   39.6728 H   0  0  0  0  0  0  0  0  0  0  0  0
   47.9975   32.3123   38.6921 H   0  0  0  0  0  0  0  0  0  0  0  0
   47.8741   34.0410   40.4735 H   0  0  0  0  0  0  0  0  0  0  0  0
   50.0694   34.2176   41.3885 H   0  0  0  0  0  0  0  0  0  0  0  0
   48.2087   30.4131   41.0520 H   0  0  0  0  0  0  0  0  0  0  0  0
   49.8194   28.2853   41.7384 H   0  0  0  0  0  0  0  0  0  0  0  0
   52.2743   28.0637   42.5670 H   0  0  0  0  0  0  0  0  0  0  0  0
   52.1196   33.1257   42.1440 H   0  0  0  0  0  0  0  0  0  0  0  0
   46.1150   35.7277   42.0384 H   0  0  0  0  0  0  0  0  0  0  0  0
   43.8003   36.8107   45.4422 H   0  0  0  0  0  0  0  0  0  0  0  0
   44.8987   31.5722   44.3021 H   0  0  0  0  0  0  0  0  0  0  0  0
   45.5936   29.4871   45.4123 H   0  0  0  0  0  0  0  0  0  0  0  0
   47.1519   29.5029   47.3721 H   0  0  0  0  0  0  0  0  0  0  0  0
   47.9737   31.7615   48.1547 H   0  0  0  0  0  0  0  0  0  0  0  0
  1  2  2  0
  1 19  1  0
  3  1  1  0
  4  3  1  0
  5  4  1  0
  6  7  1  0
  6  5  1  0
  7  8  1  0
  8 10  1  0
  8  3  1  0
  9 17  2  0
 10 11  2  0
 10  9  1  0
 11 12  1  0
 12 13  1  0
 12 16  2  0
 13 14  1  0
 14 15  2  0
 16 15  1  0
 17 16  1  0
 18 23  2  0
 18 19  1  0
 19 20  2  0
 20 21  1  0
 20 24  1  0
 22 21  2  0
 23 22  1  0
 24 29  1  0
 25 24  2  0
 25 26  1  0
 26 27  2  0
 27 28  1  0
 29 28  2  0
  4 30  1  0
  4 31  1  0
  5 32  1  0
  5 33  1  0
  6 34  1  0
  6 35  1  0
  7 36  1  0
  7 37  1  0
  8 38  1  6
  9 39  1  0
 11 40  1  0
 13 41  1  0
 14 42  1  0
 17 43  1  0
 18 44  1  0
 22 45  1  0
 25 46  1  0
 26 47  1  0
 27 48  1  0
 28 49  1  0
M  ISO  8  30  13  31  13  32  13  33  13  34  13  35  13  36  13  37  13
M  ISO  8  38  13  39  14  40  14  41   9  42  14  43  14  44  14  45  14
M  ISO  4  46  14  47  14  48  14  49  14
M  END
>  <minimizedAffinity>  (1) 
-5.62070179

>  <minimizedRMSD>  (1) 
1.3030293

$$$$
