
     RDKit          3D

 33 35  0  0  1  0  0  0  0  0999 V2000
   47.0720   35.0420   42.1880 C   0  0  1  0  0  0  0  0  0  0  0  0
   45.9810   34.5700   41.1650 C   0  0  0  0  0  0  0  0  0  0  0  0
   46.3270   33.8340   42.4020 C   0  0  2  0  0  0  0  0  0  0  0  0
   45.4450   33.7210   43.5150 N   0  0  0  0  0  0  0  0  0  0  0  0
   45.1860   34.9610   44.1570 C   0  0  0  0  0  0  0  0  0  0  0  0
   44.7850   34.8980   45.5980 C   0  0  0  0  0  0  0  0  0  0  0  0
   45.6080   34.0320   46.3950 N   0  0  0  0  0  0  0  0  0  0  0  0
   46.3610   33.0790   45.6210 C   0  0  0  0  0  0  0  0  0  0  0  0
   45.6230   32.6240   44.3880 C   0  0  0  0  0  0  0  0  0  0  0  0
   48.4430   35.0150   41.6050 C   0  0  0  0  0  0  0  0  0  0  0  0
   48.9060   36.0790   41.1910 O   0  0  0  0  0  0  0  0  0  0  0  0
   49.0860   32.9220   40.5080 C   0  0  0  0  0  0  0  0  0  0  0  0
   49.2430   33.8310   41.5130 C   0  0  0  0  0  0  0  0  0  0  0  0
   50.2440   33.5830   42.4720 C   0  0  0  0  0  0  0  0  0  0  0  0
   51.0080   32.4770   42.3790 N   0  0  0  0  0  0  0  0  0  0  0  0
   50.8220   31.5820   41.3520 C   0  0  0  0  0  0  0  0  0  0  0  0
   49.8790   31.8200   40.4530 N   0  0  0  0  0  0  0  0  0  0  0  0
   47.2888   35.8962   42.8463 H   0  0  0  0  0  0  0  0  0  0  0  0
   45.0235   35.1047   41.0802 H   0  0  0  0  0  0  0  0  0  0  0  0
   45.9361   34.3488   40.0884 H   0  0  0  0  0  0  0  0  0  0  0  0
   46.6054   32.7834   42.5717 H   0  0  0  0  0  0  0  0  0  0  0  0
   46.1007   35.5685   44.0912 H   0  0  0  0  0  0  0  0  0  0  0  0
   44.3168   35.3839   43.6319 H   0  0  0  0  0  0  0  0  0  0  0  0
   44.8425   35.9131   46.0179 H   0  0  0  0  0  0  0  0  0  0  0  0
   43.7659   34.4851   45.6275 H   0  0  0  0  0  0  0  0  0  0  0  0
   46.2697   34.6128   46.9295 H   0  0  0  0  0  0  0  0  0  0  0  0
   47.3086   33.5450   45.3130 H   0  0  0  0  0  0  0  0  0  0  0  0
   46.5313   32.1952   46.2534 H   0  0  0  0  0  0  0  0  0  0  0  0
   44.6407   32.2213   44.6761 H   0  0  0  0  0  0  0  0  0  0  0  0
   46.2050   31.8411   43.8798 H   0  0  0  0  0  0  0  0  0  0  0  0
   48.3151   33.0816   39.7398 H   0  0  0  0  0  0  0  0  0  0  0  0
   50.4023   34.2926   43.2975 H   0  0  0  0  0  0  0  0  0  0  0  0
   51.4479   30.6805   41.2780 H   0  0  0  0  0  0  0  0  0  0  0  0
  1  3  1  0
  2  1  1  0
  2  3  1  0
  3  4  1  0
  4  5  1  0
  4  9  1  0
  5  6  1  0
  6  7  1  0
  8  7  1  0
  9  8  1  0
 10  1  1  0
 11 10  2  0
 12 13  2  0
 13 10  1  0
 13 14  1  0
 15 14  2  0
 16 15  1  0
 17 12  1  0
 17 16  2  0
  1 18  1  1
  2 19  1  0
  2 20  1  0
  3 21  1  6
  5 22  1  0
  5 23  1  0
  6 24  1  0
  6 25  1  0
  7 26  1  0
  8 27  1  0
  8 28  1  0
  9 29  1  0
  9 30  1  0
 12 31  1  0
 14 32  1  0
 16 33  1  0
M  ISO  8  18  13  19  13  20  13  21  13  22  13  23  13  24  13  25  13
M  ISO  8  26   5  27  13  28  13  29  13  30  13  31  14  32  14  33  14
M  END
>  <minimizedAffinity>  (1) 
-4.68001556

>  <minimizedRMSD>  (1) 
5.68451071

$$$$
