
     RDKit          3D

 47 50  0  0  1  0  0  0  0  0999 V2000
   46.7890   33.1620   43.5060 C   0  0  0  0  0  0  0  0  0  0  0  0
   47.8760   32.7980   44.0260 O   0  0  0  0  0  0  0  0  0  0  0  0
   46.3520   32.7560   42.2090 N   0  0  0  0  0  0  0  0  0  0  0  0
   45.0480   32.2910   41.7440 C   0  0  0  0  0  0  0  0  0  0  0  0
   44.6260   33.1250   40.5140 C   0  0  0  0  0  0  0  0  0  0  0  0
   45.5900   32.8490   39.3820 C   0  0  0  0  0  0  0  0  0  0  0  0
   46.8090   32.1470   39.9100 C   0  0  0  0  0  0  0  0  0  0  0  0
   47.3320   32.8030   41.1590 C   0  0  2  0  0  0  0  0  0  0  0  0
   45.4680   35.2160   43.6350 C   0  0  0  0  0  0  0  0  0  0  0  0
   45.9400   34.0450   44.2700 C   0  0  0  0  0  0  0  0  0  0  0  0
   45.5810   33.7840   45.5750 C   0  0  0  0  0  0  0  0  0  0  0  0
   44.7790   34.6690   46.2090 N   0  0  0  0  0  0  0  0  0  0  0  0
   44.3180   35.7950   45.6120 C   0  0  0  0  0  0  0  0  0  0  0  0
   44.6720   36.0470   44.3360 N   0  0  0  0  0  0  0  0  0  0  0  0
   46.0830   32.5820   46.2080 C   0  0  0  0  0  0  0  0  0  0  0  0
   45.5660   31.3660   45.8710 C   0  0  0  0  0  0  0  0  0  0  0  0
   46.0510   30.2320   46.4810 C   0  0  0  0  0  0  0  0  0  0  0  0
   47.0600   30.2650   47.4400 C   0  0  0  0  0  0  0  0  0  0  0  0
   47.5420   31.5240   47.7380 C   0  0  0  0  0  0  0  0  0  0  0  0
   47.0450   32.6090   47.1230 N   0  0  0  0  0  0  0  0  0  0  0  0
   49.7130   33.3110   41.7260 C   0  0  0  0  0  0  0  0  0  0  0  0
   48.6830   32.3860   41.5020 C   0  0  0  0  0  0  0  0  0  0  0  0
   49.1370   31.0700   41.6340 C   0  0  0  0  0  0  0  0  0  0  0  0
   50.4300   30.7100   41.9440 C   0  0  0  0  0  0  0  0  0  0  0  0
   51.3640   31.7050   42.1440 C   0  0  0  0  0  0  0  0  0  0  0  0
   51.0280   33.0380   42.0400 C   0  0  0  0  0  0  0  0  0  0  0  0
   49.0070   35.8220   41.5270 N   0  0  0  0  0  0  0  0  0  0  0  0
   49.3190   34.7040   41.6060 C   0  0  0  0  0  0  0  0  0  0  0  0
   45.1132   31.2290   41.4648 H   0  0  0  0  0  0  0  0  0  0  0  0
   44.3040   32.4084   42.5457 H   0  0  0  0  0  0  0  0  0  0  0  0
   43.6074   32.8436   40.2087 H   0  0  0  0  0  0  0  0  0  0  0  0
   44.6428   34.1957   40.7657 H   0  0  0  0  0  0  0  0  0  0  0  0
   45.8891   33.8001   38.9172 H   0  0  0  0  0  0  0  0  0  0  0  0
   45.0982   32.2092   38.6345 H   0  0  0  0  0  0  0  0  0  0  0  0
   46.5483   31.1030   40.1381 H   0  0  0  0  0  0  0  0  0  0  0  0
   47.5941   32.1984   39.1413 H   0  0  0  0  0  0  0  0  0  0  0  0
   47.4755   33.8763   40.9653 H   0  0  0  0  0  0  0  0  0  0  0  0
   45.7435   35.4433   42.5946 H   0  0  0  0  0  0  0  0  0  0  0  0
   43.6660   36.4915   46.1595 H   0  0  0  0  0  0  0  0  0  0  0  0
   44.7678   31.2923   45.1177 H   0  0  0  0  0  0  0  0  0  0  0  0
   45.6236   29.2584   46.1992 H   0  0  0  0  0  0  0  0  0  0  0  0
   47.4446   29.3553   47.9243 H   0  0  0  0  0  0  0  0  0  0  0  0
   48.3403   31.6391   48.4860 H   0  0  0  0  0  0  0  0  0  0  0  0
   48.4071   30.2619   41.4787 H   0  0  0  0  0  0  0  0  0  0  0  0
   50.7120   29.6503   42.0303 H   0  0  0  0  0  0  0  0  0  0  0  0
   52.3995   31.4289   42.3919 H   0  0  0  0  0  0  0  0  0  0  0  0
   51.7663   33.8379   42.1983 H   0  0  0  0  0  0  0  0  0  0  0  0
  1  2  2  0
  1 10  1  0
  3  1  1  0
  4  3  1  0
  5  4  1  0
  6  7  1  0
  6  5  1  0
  7  8  1  0
  8 22  1  0
  8  3  1  0
  9 10  2  0
  9 14  1  0
 10 11  1  0
 11 15  1  0
 11 12  2  0
 13 12  1  0
 14 13  2  0
 15 20  1  0
 16 15  2  0
 16 17  1  0
 17 18  2  0
 18 19  1  0
 20 19  2  0
 21 26  2  0
 22 23  2  0
 22 21  1  0
 23 24  1  0
 24 25  2  0
 26 25  1  0
 27 28  3  0
 28 21  1  0
  4 29  1  0
  4 30  1  0
  5 31  1  0
  5 32  1  0
  6 33  1  0
  6 34  1  0
  7 35  1  0
  7 36  1  0
  8 37  1  6
  9 38  1  0
 13 39  1  0
 16 40  1  0
 17 41  1  0
 18 42  1  0
 19 43  1  0
 23 44  1  0
 24 45  1  0
 25 46  1  0
 26 47  1  0
M  ISO  8  29  13  30  13  31  13  32  13  33  13  34  13  35  13  36  13
M  ISO  8  37  13  38  14  39  14  40  14  41  14  42  14  43  14  44  14
M  ISO  3  45  14  46  14  47  14
M  END
>  <minimizedAffinity>  (1) 
-5.50054121

>  <minimizedRMSD>  (1) 
1.24084067

$$$$
