
     RDKit          3D

 50 53  0  0  1  0  0  0  0  0999 V2000
   47.4520   33.5010   42.9130 C   0  0  0  0  0  0  0  0  0  0  0  0
   48.5840   33.4750   43.5230 O   0  0  0  0  0  0  0  0  0  0  0  0
   47.1620   32.7480   41.7160 N   0  0  0  0  0  0  0  0  0  0  0  0
   45.9840   31.9990   41.3470 C   0  0  0  0  0  0  0  0  0  0  0  0
   45.5270   32.4710   39.9600 C   0  0  0  0  0  0  0  0  0  0  0  0
   46.5730   32.1500   38.9310 C   0  0  0  0  0  0  0  0  0  0  0  0
   47.8750   31.8050   39.6170 C   0  0  0  0  0  0  0  0  0  0  0  0
   48.2210   32.7830   40.7120 C   0  0  2  0  0  0  0  0  0  0  0  0
   46.0560   35.4910   42.7560 C   0  0  0  0  0  0  0  0  0  0  0  0
   46.4280   34.3350   43.4680 C   0  0  0  0  0  0  0  0  0  0  0  0
   45.8070   34.0400   44.6710 C   0  0  0  0  0  0  0  0  0  0  0  0
   44.8550   34.8930   45.1070 N   0  0  0  0  0  0  0  0  0  0  0  0
   44.4800   36.0040   44.4470 C   0  0  0  0  0  0  0  0  0  0  0  0
   45.0960   36.2890   43.2660 N   0  0  0  0  0  0  0  0  0  0  0  0
   46.2080   32.8410   45.3860 C   0  0  0  0  0  0  0  0  0  0  0  0
   45.8770   31.6130   44.8960 C   0  0  0  0  0  0  0  0  0  0  0  0
   46.2720   30.5060   45.6000 C   0  0  0  0  0  0  0  0  0  0  0  0
   46.9900   30.5700   46.7840 C   0  0  0  0  0  0  0  0  0  0  0  0
   47.2930   31.8460   47.2290 C   0  0  0  0  0  0  0  0  0  0  0  0
   46.8970   32.9080   46.5250 N   0  0  0  0  0  0  0  0  0  0  0  0
   49.5830   32.5400   41.2200 C   0  0  0  0  0  0  0  0  0  0  0  0
   50.9710   30.5090   40.8800 C   0  0  0  0  0  0  0  0  0  0  0  0
   50.0210   31.2310   41.6410 C   0  0  0  0  0  0  0  0  0  0  0  0
   49.6240   30.4290   42.7160 C   0  0  0  0  0  0  0  0  0  0  0  0
   50.0130   29.1890   43.0530 C   0  0  0  0  0  0  0  0  0  0  0  0
   50.9380   28.5390   42.2790 C   0  0  0  0  0  0  0  0  0  0  0  0
   51.4170   29.2160   41.1790 C   0  0  0  0  0  0  0  0  0  0  0  0
   52.0320   31.6920   38.7840 N   0  0  0  0  0  0  0  0  0  0  0  0
   51.5560   31.1520   39.7200 C   0  0  0  0  0  0  0  0  0  0  0  0
   46.2209   30.9253   41.3150 H   0  0  0  0  0  0  0  0  0  0  0  0
   45.1848   32.1622   42.0850 H   0  0  0  0  0  0  0  0  0  0  0  0
   44.5883   31.9627   39.6945 H   0  0  0  0  0  0  0  0  0  0  0  0
   45.3711   33.5596   39.9852 H   0  0  0  0  0  0  0  0  0  0  0  0
   46.7237   33.0227   38.2785 H   0  0  0  0  0  0  0  0  0  0  0  0
   46.2401   31.2914   38.3293 H   0  0  0  0  0  0  0  0  0  0  0  0
   47.7887   30.7996   40.0548 H   0  0  0  0  0  0  0  0  0  0  0  0
   48.6746   31.8471   38.8628 H   0  0  0  0  0  0  0  0  0  0  0  0
   48.2589   33.8153   40.3340 H   0  0  0  0  0  0  0  0  0  0  0  0
   46.5401   35.7391   41.7999 H   0  0  0  0  0  0  0  0  0  0  0  0
   43.6976   36.6639   44.8500 H   0  0  0  0  0  0  0  0  0  0  0  0
   45.3078   31.5133   43.9600 H   0  0  0  0  0  0  0  0  0  0  0  0
   46.0054   29.5146   45.2050 H   0  0  0  0  0  0  0  0  0  0  0  0
   47.2983   29.6681   47.3331 H   0  0  0  0  0  0  0  0  0  0  0  0
   47.8595   31.9838   48.1618 H   0  0  0  0  0  0  0  0  0  0  0  0
   50.2701   32.8517   40.4195 H   0  0  0  0  0  0  0  0  0  0  0  0
   49.5781   33.0974   42.1683 H   0  0  0  0  0  0  0  0  0  0  0  0
   48.8802   30.8832   43.3872 H   0  0  0  0  0  0  0  0  0  0  0  0
   49.5924   28.6988   43.9434 H   0  0  0  0  0  0  0  0  0  0  0  0
   51.2822   27.5235   42.5246 H   0  0  0  0  0  0  0  0  0  0  0  0
   52.1601   28.7341   40.5266 H   0  0  0  0  0  0  0  0  0  0  0  0
  1 10  1  0
  1  2  2  0
  3  1  1  0
  4  3  1  0
  5  4  1  0
  6  7  1  0
  6  5  1  0
  7  8  1  0
  8 21  1  0
  8  3  1  0
  9 14  2  0
  9 10  1  0
 10 11  2  0
 11 12  1  0
 11 15  1  0
 13 12  2  0
 14 13  1  0
 15 20  1  0
 16 15  2  0
 16 17  1  0
 17 18  2  0
 18 19  1  0
 20 19  2  0
 21 23  1  0
 22 27  2  0
 22 23  1  0
 23 24  2  0
 24 25  1  0
 26 25  2  0
 27 26  1  0
 28 29  3  0
 29 22  1  0
  4 30  1  0
  4 31  1  0
  5 32  1  0
  5 33  1  0
  6 34  1  0
  6 35  1  0
  7 36  1  0
  7 37  1  0
  8 38  1  6
  9 39  1  0
 13 40  1  0
 16 41  1  0
 17 42  1  0
 18 43  1  0
 19 44  1  0
 21 45  1  0
 21 46  1  0
 24 47  1  0
 25 48  1  0
 26 49  1  0
 27 50  1  0
M  ISO  8  30  13  31  13  32  13  33  13  34  13  35  13  36  13  37  13
M  ISO  8  38  13  39  14  40  14  41  14  42  14  43  14  44  14  45   8
M  ISO  5  46   8  47  14  48  14  49  14  50  14
M  END
>  <minimizedAffinity>  (1) 
-4.98684645

>  <minimizedRMSD>  (1) 
1.11838472

$$$$
