
     RDKit          3D

 53 56  0  0  1  0  0  0  0  0999 V2000
   47.1120   32.8030   43.3120 C   0  0  0  0  0  0  0  0  0  0  0  0
   48.2600   32.7030   43.8180 O   0  0  0  0  0  0  0  0  0  0  0  0
   46.6160   31.9350   42.3080 N   0  0  0  0  0  0  0  0  0  0  0  0
   45.3070   31.2790   42.1730 C   0  0  0  0  0  0  0  0  0  0  0  0
   44.7350   31.5460   40.7940 C   0  0  0  0  0  0  0  0  0  0  0  0
   45.6040   30.9400   39.7390 C   0  0  0  0  0  0  0  0  0  0  0  0
   46.9210   30.5450   40.3460 C   0  0  0  0  0  0  0  0  0  0  0  0
   47.5050   31.6060   41.2250 C   0  0  2  0  0  0  0  0  0  0  0  0
   45.9470   34.9180   42.8940 C   0  0  0  0  0  0  0  0  0  0  0  0
   46.2650   33.8590   43.7890 C   0  0  0  0  0  0  0  0  0  0  0  0
   45.7490   33.8850   45.0710 C   0  0  0  0  0  0  0  0  0  0  0  0
   44.9620   34.9220   45.4240 N   0  0  0  0  0  0  0  0  0  0  0  0
   44.6520   35.9360   44.5830 C   0  0  0  0  0  0  0  0  0  0  0  0
   45.1520   35.9130   43.3300 N   0  0  0  0  0  0  0  0  0  0  0  0
   46.0900   32.7920   45.9700 C   0  0  0  0  0  0  0  0  0  0  0  0
   45.5130   31.5760   45.8150 C   0  0  0  0  0  0  0  0  0  0  0  0
   45.8570   30.5560   46.6810 C   0  0  0  0  0  0  0  0  0  0  0  0
   46.7830   30.7310   47.7180 C   0  0  0  0  0  0  0  0  0  0  0  0
   47.3430   32.0020   47.8280 C   0  0  0  0  0  0  0  0  0  0  0  0
   46.9840   32.9660   46.9680 N   0  0  0  0  0  0  0  0  0  0  0  0
   48.8760   31.2160   41.6380 C   0  0  0  0  0  0  0  0  0  0  0  0
   49.9260   31.8090   40.8470 N   0  0  0  0  0  0  0  0  0  0  0  0
   51.2440   31.6770   41.2020 C   0  0  0  0  0  0  0  0  0  0  0  0
   52.0900   31.6160   39.9370 C   0  0  0  0  0  0  0  0  0  0  0  0
   51.6370   30.6440   38.9900 N   0  0  0  0  0  0  0  0  0  0  0  0
   50.2460   30.8440   38.6260 C   0  0  0  0  0  0  0  0  0  0  0  0
   49.6050   31.9300   39.4610 C   0  0  0  0  0  0  0  0  0  0  0  0
   45.4262   30.1947   42.3146 H   0  0  0  0  0  0  0  0  0  0  0  0
   44.6209   31.6804   42.9334 H   0  0  0  0  0  0  0  0  0  0  0  0
   43.7281   31.1079   40.7290 H   0  0  0  0  0  0  0  0  0  0  0  0
   44.6873   32.6332   40.6336 H   0  0  0  0  0  0  0  0  0  0  0  0
   45.7743   31.6736   38.9373 H   0  0  0  0  0  0  0  0  0  0  0  0
   45.1098   30.0507   39.3208 H   0  0  0  0  0  0  0  0  0  0  0  0
   46.7707   29.6362   40.9472 H   0  0  0  0  0  0  0  0  0  0  0  0
   47.6268   30.3800   39.5185 H   0  0  0  0  0  0  0  0  0  0  0  0
   47.6114   32.5462   40.6641 H   0  0  0  0  0  0  0  0  0  0  0  0
   46.3423   34.9237   41.8675 H   0  0  0  0  0  0  0  0  0  0  0  0
   44.0056   36.7621   44.9142 H   0  0  0  0  0  0  0  0  0  0  0  0
   44.7816   31.4034   45.0117 H   0  0  0  0  0  0  0  0  0  0  0  0
   45.3866   29.5701   46.5517 H   0  0  0  0  0  0  0  0  0  0  0  0
   47.0516   29.9141   48.4039 H   0  0  0  0  0  0  0  0  0  0  0  0
   48.0779   32.2141   48.6185 H   0  0  0  0  0  0  0  0  0  0  0  0
   49.0199   31.5205   42.6852 H   0  0  0  0  0  0  0  0  0  0  0  0
   48.9503   30.1279   41.4947 H   0  0  0  0  0  0  0  0  0  0  0  0
   51.5510   32.5403   41.8107 H   0  0  0  0  0  0  0  0  0  0  0  0
   51.3824   30.7568   41.7886 H   0  0  0  0  0  0  0  0  0  0  0  0
   52.0688   32.6054   39.4567 H   0  0  0  0  0  0  0  0  0  0  0  0
   53.1046   31.3200   40.2420 H   0  0  0  0  0  0  0  0  0  0  0  0
   52.2158   30.7126   38.1408 H   0  0  0  0  0  0  0  0  0  0  0  0
   50.1917   31.1298   37.5652 H   0  0  0  0  0  0  0  0  0  0  0  0
   49.7035   29.9043   38.8067 H   0  0  0  0  0  0  0  0  0  0  0  0
   49.9573   32.9077   39.1004 H   0  0  0  0  0  0  0  0  0  0  0  0
   48.5141   31.8331   39.3587 H   0  0  0  0  0  0  0  0  0  0  0  0
  1 10  1  0
  1  2  2  0
  3  1  1  0
  4  3  1  0
  5  4  1  0
  6  7  1  0
  6  5  1  0
  7  8  1  0
  8 21  1  0
  8  3  1  0
  9 14  2  0
  9 10  1  0
 10 11  2  0
 11 12  1  0
 11 15  1  0
 13 12  2  0
 14 13  1  0
 15 20  1  0
 16 15  2  0
 16 17  1  0
 17 18  2  0
 18 19  1  0
 20 19  2  0
 22 23  1  0
 22 21  1  0
 24 23  1  0
 25 24  1  0
 26 25  1  0
 26 27  1  0
 27 22  1  0
  4 28  1  0
  4 29  1  0
  5 30  1  0
  5 31  1  0
  6 32  1  0
  6 33  1  0
  7 34  1  0
  7 35  1  0
  8 36  1  6
  9 37  1  0
 13 38  1  0
 16 39  1  0
 17 40  1  0
 18 41  1  0
 19 42  1  0
 21 43  1  0
 21 44  1  0
 23 45  1  0
 23 46  1  0
 24 47  1  0
 24 48  1  0
 25 49  1  0
 26 50  1  0
 26 51  1  0
 27 52  1  0
 27 53  1  0
M  ISO  8  28  13  29  13  30  13  31  13  32  13  33  13  34  13  35  13
M  ISO  8  36  13  37  14  38  14  39  14  40  14  41  14  42  14  43   8
M  ISO  8  44   8  45  13  46  13  47  13  48  13  49   5  50  13  51  13
M  ISO  2  52  13  53  13
M  END
>  <minimizedAffinity>  (1) 
-4.76747227

>  <minimizedRMSD>  (1) 
1.35054994

$$$$
