
     RDKit          3D

 29 31  0  0  0  0  0  0  0  0999 V2000
   45.7240   33.9550   45.4180 C   0  0  0  0  0  0  0  0  0  0  0  0
   44.7720   34.9450   45.6600 C   0  0  0  0  0  0  0  0  0  0  0  0
   44.5160   35.8760   44.6260 C   0  0  0  0  0  0  0  0  0  0  0  0
   45.2080   35.7680   43.4390 N   0  0  0  0  0  0  0  0  0  0  0  0
   46.1150   34.7830   43.2790 C   0  0  0  0  0  0  0  0  0  0  0  0
   46.3660   33.9020   44.2390 N   0  0  0  0  0  0  0  0  0  0  0  0
   46.8320   34.6930   42.0140 C   0  0  0  0  0  0  0  0  0  0  0  0
   48.0200   35.3890   41.8310 C   0  0  0  0  0  0  0  0  0  0  0  0
   48.7690   35.3690   40.6730 C   0  0  0  0  0  0  0  0  0  0  0  0
   48.2420   34.5790   39.6590 C   0  0  0  0  0  0  0  0  0  0  0  0
   47.0590   33.8750   39.8130 C   0  0  0  0  0  0  0  0  0  0  0  0
   46.3780   33.9500   40.9990 N   0  0  0  0  0  0  0  0  0  0  0  0
   44.3040   33.8280   47.7930 F   0  0  0  0  0  0  0  0  0  0  0  0
   45.3040   32.9320   47.6140 C   0  0  0  0  0  0  0  0  0  0  0  0
   46.0310   32.9660   46.4420 C   0  0  0  0  0  0  0  0  0  0  0  0
   47.0210   32.0180   46.3600 C   0  0  0  0  0  0  0  0  0  0  0  0
   47.2760   31.1000   47.3580 C   0  0  0  0  0  0  0  0  0  0  0  0
   46.5160   31.1110   48.5120 C   0  0  0  0  0  0  0  0  0  0  0  0
   45.5080   32.0410   48.6490 C   0  0  0  0  0  0  0  0  0  0  0  0
   44.2391   35.0000   46.6207 H   0  0  0  0  0  0  0  0  0  0  0  0
   43.7742   36.6758   44.7676 H   0  0  0  0  0  0  0  0  0  0  0  0
   48.3895   35.9990   42.6685 H   0  0  0  0  0  0  0  0  0  0  0  0
   49.7071   35.9326   40.5614 H   0  0  0  0  0  0  0  0  0  0  0  0
   48.7816   34.5103   38.7029 H   0  0  0  0  0  0  0  0  0  0  0  0
   46.6692   33.2600   38.9885 H   0  0  0  0  0  0  0  0  0  0  0  0
   47.6423   31.9890   45.4527 H   0  0  0  0  0  0  0  0  0  0  0  0
   48.0820   30.3615   47.2354 H   0  0  0  0  0  0  0  0  0  0  0  0
   46.7136   30.3843   49.3138 H   0  0  0  0  0  0  0  0  0  0  0  0
   44.8851   32.0725   49.5551 H   0  0  0  0  0  0  0  0  0  0  0  0
  1  2  2  0
  1 15  1  0
  3  2  1  0
  4  3  2  0
  5  4  1  0
  5  6  2  0
  6  1  1  0
  7  5  1  0
  8  7  2  0
  9  8  1  0
 10 11  1  0
 10  9  2  0
 11 12  2  0
 12  7  1  0
 14 13  1  0
 14 19  2  0
 15 14  1  0
 16 15  2  0
 16 17  1  0
 17 18  2  0
 18 19  1  0
  2 20  1  0
  3 21  1  0
  8 22  1  0
  9 23  1  0
 10 24  1  0
 11 25  1  0
 16 26  1  0
 17 27  1  0
 18 28  1  0
 19 29  1  0
M  ISO  8  20  14  21  14  22  14  23  14  24  14  25  14  26  14  27  14
M  ISO  2  28  14  29  14
M  END
>  <minimizedAffinity>  (1) 
-6.6297307

>  <minimizedRMSD>  (1) 
0.470677227

$$$$
