
     RDKit          3D

 26 28  0  0  0  0  0  0  0  0999 V2000
   45.6330   34.0160   45.5020 C   0  0  0  0  0  0  0  0  0  0  0  0
   44.6940   35.0250   45.7280 C   0  0  0  0  0  0  0  0  0  0  0  0
   44.4610   35.9440   44.6840 C   0  0  0  0  0  0  0  0  0  0  0  0
   45.1600   35.8030   43.5050 N   0  0  0  0  0  0  0  0  0  0  0  0
   46.0490   34.8120   43.3480 C   0  0  0  0  0  0  0  0  0  0  0  0
   46.2820   33.9340   44.3280 N   0  0  0  0  0  0  0  0  0  0  0  0
   46.7680   34.6950   42.0900 C   0  0  0  0  0  0  0  0  0  0  0  0
   47.9660   35.3470   41.9020 C   0  0  0  0  0  0  0  0  0  0  0  0
   48.7240   35.2990   40.7470 C   0  0  0  0  0  0  0  0  0  0  0  0
   48.1690   34.5130   39.7400 C   0  0  0  0  0  0  0  0  0  0  0  0
   46.9650   33.8470   39.9030 C   0  0  0  0  0  0  0  0  0  0  0  0
   46.2760   33.9460   41.0770 N   0  0  0  0  0  0  0  0  0  0  0  0
   45.8940   33.0540   46.5660 C   0  0  0  0  0  0  0  0  0  0  0  0
   46.9390   32.1540   46.5910 C   0  0  0  0  0  0  0  0  0  0  0  0
   46.8110   31.4550   47.7480 N   0  0  0  0  0  0  0  0  0  0  0  0
   45.7290   31.9030   48.4110 C   0  0  0  0  0  0  0  0  0  0  0  0
   45.1540   32.8990   47.6770 N   0  0  0  0  0  0  0  0  0  0  0  0
   44.1563   35.1000   46.6847 H   0  0  0  0  0  0  0  0  0  0  0  0
   43.7335   36.7596   44.8088 H   0  0  0  0  0  0  0  0  0  0  0  0
   48.3498   35.9533   42.7357 H   0  0  0  0  0  0  0  0  0  0  0  0
   49.6789   35.8331   40.6335 H   0  0  0  0  0  0  0  0  0  0  0  0
   48.7042   34.4178   38.7837 H   0  0  0  0  0  0  0  0  0  0  0  0
   46.5624   33.2354   39.0821 H   0  0  0  0  0  0  0  0  0  0  0  0
   47.7198   32.0278   45.8266 H   0  0  0  0  0  0  0  0  0  0  0  0
   47.4398   30.7040   48.0665 H   0  0  0  0  0  0  0  0  0  0  0  0
   45.3690   31.5293   49.3809 H   0  0  0  0  0  0  0  0  0  0  0  0
  1  2  2  0
  1 13  1  0
  3  2  1  0
  4  3  2  0
  5  4  1  0
  5  6  2  0
  6  1  1  0
  7  5  1  0
  8  7  2  0
  9  8  1  0
 10 11  1  0
 10  9  2  0
 11 12  2  0
 12  7  1  0
 13 14  2  0
 13 17  1  0
 14 15  1  0
 15 16  1  0
 17 16  2  0
  2 18  1  0
  3 19  1  0
  8 20  1  0
  9 21  1  0
 10 22  1  0
 11 23  1  0
 14 24  1  0
 15 25  1  0
 16 26  1  0
M  ISO  8  18  14  19  14  20  14  21  14  22  14  23  14  24  14  25   9
M  ISO  1  26  14
M  END
>  <minimizedAffinity>  (1) 
-5.80611753

>  <minimizedRMSD>  (1) 
0.177433491

$$$$
