
     RDKit          3D

 26 28  0  0  0  0  0  0  0  0999 V2000
   45.6910   33.6360   45.4630 C   0  0  0  0  0  0  0  0  0  0  0  0
   44.8220   34.6740   45.8110 C   0  0  0  0  0  0  0  0  0  0  0  0
   44.6480   35.7060   44.8890 C   0  0  0  0  0  0  0  0  0  0  0  0
   45.3320   35.6490   43.6990 N   0  0  0  0  0  0  0  0  0  0  0  0
   46.1510   34.6300   43.4180 C   0  0  0  0  0  0  0  0  0  0  0  0
   46.3400   33.6300   44.2760 N   0  0  0  0  0  0  0  0  0  0  0  0
   46.8540   34.6220   42.1340 C   0  0  0  0  0  0  0  0  0  0  0  0
   48.0210   35.3640   41.9840 C   0  0  0  0  0  0  0  0  0  0  0  0
   48.7600   35.4270   40.8170 C   0  0  0  0  0  0  0  0  0  0  0  0
   48.2420   34.6720   39.7680 C   0  0  0  0  0  0  0  0  0  0  0  0
   47.0790   33.9270   39.9070 C   0  0  0  0  0  0  0  0  0  0  0  0
   46.3960   33.9090   41.0890 N   0  0  0  0  0  0  0  0  0  0  0  0
   45.9530   32.4750   46.3780 C   0  0  0  0  0  0  0  0  0  0  0  0
   46.9260   32.5960   47.4660 C   0  0  0  0  0  0  0  0  0  0  0  0
   45.4760   32.6970   47.8110 C   0  0  0  0  0  0  0  0  0  0  0  0
   44.2948   34.6769   46.7764 H   0  0  0  0  0  0  0  0  0  0  0  0
   43.9765   36.5487   45.1103 H   0  0  0  0  0  0  0  0  0  0  0  0
   48.3796   35.9385   42.8508 H   0  0  0  0  0  0  0  0  0  0  0  0
   49.6797   36.0234   40.7251 H   0  0  0  0  0  0  0  0  0  0  0  0
   48.7689   34.6657   38.8024 H   0  0  0  0  0  0  0  0  0  0  0  0
   46.7028   33.3436   39.0537 H   0  0  0  0  0  0  0  0  0  0  0  0
   45.8210   31.7296   45.5799 H   0  0  0  0  0  0  0  0  0  0  0  0
   47.5004   31.7130   47.7829 H   0  0  0  0  0  0  0  0  0  0  0  0
   47.8010   33.2390   47.6420 H   0  0  0  0  0  0  0  0  0  0  0  0
   45.0418   33.6629   48.1085 H   0  0  0  0  0  0  0  0  0  0  0  0
   44.7918   32.1848   48.5035 H   0  0  0  0  0  0  0  0  0  0  0  0
  1  2  2  0
  1 13  1  0
  3  2  1  0
  4  3  2  0
  5  4  1  0
  5  6  2  0
  6  1  1  0
  7  5  1  0
  8  7  2  0
  9  8  1  0
 10 11  1  0
 10  9  2  0
 11 12  2  0
 12  7  1  0
 13 14  1  0
 13 15  1  0
 14 15  1  0
  2 16  1  0
  3 17  1  0
  8 18  1  0
  9 19  1  0
 10 20  1  0
 11 21  1  0
 13 22  1  0
 14 23  1  0
 14 24  1  0
 15 25  1  0
 15 26  1  0
M  ISO  8  16  14  17  14  18  14  19  14  20  14  21  14  22  13  23  13
M  ISO  3  24  13  25  13  26  13
M  END
>  <minimizedAffinity>  (1) 
-5.27985048

>  <minimizedRMSD>  (1) 
0.351097077

$$$$
