
     RDKit          3D

 20 21  0  0  0  0  0  0  0  0999 V2000
   45.6650   33.9610   45.4470 C   0  0  0  0  0  0  0  0  0  0  0  0
   44.7280   34.9700   45.6870 C   0  0  0  0  0  0  0  0  0  0  0  0
   44.5080   35.9220   44.6670 C   0  0  0  0  0  0  0  0  0  0  0  0
   45.2190   35.8140   43.4920 N   0  0  0  0  0  0  0  0  0  0  0  0
   46.1110   34.8090   43.3260 C   0  0  0  0  0  0  0  0  0  0  0  0
   46.3420   33.8890   44.2790 N   0  0  0  0  0  0  0  0  0  0  0  0
   46.8450   34.7290   42.0650 C   0  0  0  0  0  0  0  0  0  0  0  0
   48.0210   35.4100   41.8870 C   0  0  0  0  0  0  0  0  0  0  0  0
   48.7720   35.3880   40.7300 C   0  0  0  0  0  0  0  0  0  0  0  0
   48.2390   34.6000   39.7180 C   0  0  0  0  0  0  0  0  0  0  0  0
   47.0510   33.8980   39.8650 C   0  0  0  0  0  0  0  0  0  0  0  0
   46.3670   33.9740   41.0450 N   0  0  0  0  0  0  0  0  0  0  0  0
   46.0310   32.7020   46.6590 S   0  0  0  0  0  0  0  0  0  0  0  0
   44.1797   35.0210   46.6393 H   0  0  0  0  0  0  0  0  0  0  0  0
   43.7814   36.7357   44.8084 H   0  0  0  0  0  0  0  0  0  0  0  0
   48.3922   36.0170   42.7259 H   0  0  0  0  0  0  0  0  0  0  0  0
   49.7128   35.9469   40.6184 H   0  0  0  0  0  0  0  0  0  0  0  0
   48.7797   34.5296   38.7627 H   0  0  0  0  0  0  0  0  0  0  0  0
   46.6632   33.2852   39.0379 H   0  0  0  0  0  0  0  0  0  0  0  0
   45.8799   33.2219   47.9175 H   0  0  0  0  0  0  0  0  0  0  0  0
  1  2  2  0
  1 13  1  0
  3  2  1  0
  4  3  2  0
  5  4  1  0
  5  6  2  0
  6  1  1  0
  7  5  1  0
  8  7  2  0
  9  8  1  0
 10 11  1  0
 10  9  2  0
 11 12  2  0
 12  7  1  0
  2 14  1  0
  3 15  1  0
  8 16  1  0
  9 17  1  0
 10 18  1  0
 11 19  1  0
 13 20  1  0
M  ISO  7  14  14  15  14  16  14  17  14  18  14  19  14  20  11
M  END
>  <minimizedAffinity>  (1) 
-4.94398451

>  <minimizedRMSD>  (1) 
0.0338209905

$$$$
