
     RDKit          3D

 20 21  0  0  0  0  0  0  0  0999 V2000
   45.6350   33.9710   45.4540 C   0  0  0  0  0  0  0  0  0  0  0  0
   44.7070   34.9980   45.6960 C   0  0  0  0  0  0  0  0  0  0  0  0
   44.5070   35.9370   44.6810 C   0  0  0  0  0  0  0  0  0  0  0  0
   45.2200   35.8090   43.5120 N   0  0  0  0  0  0  0  0  0  0  0  0
   46.1010   34.7960   43.3370 C   0  0  0  0  0  0  0  0  0  0  0  0
   46.3100   33.8910   44.2860 N   0  0  0  0  0  0  0  0  0  0  0  0
   46.8310   34.7130   42.0690 C   0  0  0  0  0  0  0  0  0  0  0  0
   48.0110   35.4060   41.9120 C   0  0  0  0  0  0  0  0  0  0  0  0
   48.7780   35.4000   40.7620 C   0  0  0  0  0  0  0  0  0  0  0  0
   48.2550   34.6170   39.7410 C   0  0  0  0  0  0  0  0  0  0  0  0
   47.0620   33.9080   39.8830 C   0  0  0  0  0  0  0  0  0  0  0  0
   46.3680   33.9710   41.0550 N   0  0  0  0  0  0  0  0  0  0  0  0
   45.8570   33.0200   46.4420 O   0  0  0  0  0  0  0  0  0  0  0  0
   44.1592   35.0603   46.6478 H   0  0  0  0  0  0  0  0  0  0  0  0
   43.7928   36.7630   44.8143 H   0  0  0  0  0  0  0  0  0  0  0  0
   48.3682   36.0065   42.7616 H   0  0  0  0  0  0  0  0  0  0  0  0
   49.7173   35.9641   40.6644 H   0  0  0  0  0  0  0  0  0  0  0  0
   48.8002   34.5538   38.7877 H   0  0  0  0  0  0  0  0  0  0  0  0
   46.6814   33.2986   39.0501 H   0  0  0  0  0  0  0  0  0  0  0  0
   46.5073   32.2894   46.2887 H   0  0  0  0  0  0  0  0  0  0  0  0
  1  2  2  0
  1 13  1  0
  3  2  1  0
  4  3  2  0
  5  4  1  0
  5  6  2  0
  6  1  1  0
  7  5  1  0
  8  7  2  0
  9  8  1  0
 10 11  1  0
 10  9  2  0
 11 12  2  0
 12  7  1  0
  2 14  1  0
  3 15  1  0
  8 16  1  0
  9 17  1  0
 10 18  1  0
 11 19  1  0
 13 20  1  0
M  ISO  7  14  14  15  14  16  14  17  14  18  14  19  14  20   3
M  END
>  <minimizedAffinity>  (1) 
-4.90888977

>  <minimizedRMSD>  (1) 
0.0175806805

$$$$
