
     RDKit          3D

 35 37  0  0  0  0  0  0  0  0999 V2000
   45.7960   33.8090   45.5890 C   0  0  0  0  0  0  0  0  0  0  0  0
   44.8080   34.7700   45.8550 C   0  0  0  0  0  0  0  0  0  0  0  0
   44.5160   35.6960   44.8310 C   0  0  0  0  0  0  0  0  0  0  0  0
   45.2080   35.6060   43.6460 N   0  0  0  0  0  0  0  0  0  0  0  0
   46.1420   34.6590   43.4600 C   0  0  0  0  0  0  0  0  0  0  0  0
   46.4410   33.7700   44.4070 N   0  0  0  0  0  0  0  0  0  0  0  0
   46.8440   34.6200   42.1710 C   0  0  0  0  0  0  0  0  0  0  0  0
   47.9980   35.3320   41.9760 C   0  0  0  0  0  0  0  0  0  0  0  0
   48.7260   35.3580   40.8050 C   0  0  0  0  0  0  0  0  0  0  0  0
   48.1880   34.5790   39.7870 C   0  0  0  0  0  0  0  0  0  0  0  0
   47.0220   33.8470   39.9560 C   0  0  0  0  0  0  0  0  0  0  0  0
   46.3550   33.8720   41.1510 N   0  0  0  0  0  0  0  0  0  0  0  0
   46.1750   32.7900   46.6030 C   0  0  0  0  0  0  0  0  0  0  0  0
   46.0890   31.3840   46.1060 C   0  0  0  0  0  0  0  0  0  0  0  0
   46.6310   30.4990   47.2220 C   0  0  0  0  0  0  0  0  0  0  0  0
   45.9430   30.7090   48.5350 C   0  0  0  0  0  0  0  0  0  0  0  0
   45.8320   32.1650   48.9140 C   0  0  0  0  0  0  0  0  0  0  0  0
   45.1740   32.8920   47.7620 C   0  0  0  0  0  0  0  0  0  0  0  0
   44.2833   34.8000   46.8213 H   0  0  0  0  0  0  0  0  0  0  0  0
   43.7513   36.4731   44.9775 H   0  0  0  0  0  0  0  0  0  0  0  0
   48.3734   35.9299   42.8196 H   0  0  0  0  0  0  0  0  0  0  0  0
   49.6500   35.9430   40.6870 H   0  0  0  0  0  0  0  0  0  0  0  0
   48.7037   34.5419   38.8161 H   0  0  0  0  0  0  0  0  0  0  0  0
   46.6308   33.2425   39.1244 H   0  0  0  0  0  0  0  0  0  0  0  0
   47.2186   32.9949   46.8839 H   0  0  0  0  0  0  0  0  0  0  0  0
   45.0436   31.1215   45.8861 H   0  0  0  0  0  0  0  0  0  0  0  0
   46.6651   31.2532   45.1781 H   0  0  0  0  0  0  0  0  0  0  0  0
   46.5036   29.4473   46.9259 H   0  0  0  0  0  0  0  0  0  0  0  0
   47.6887   30.7661   47.3634 H   0  0  0  0  0  0  0  0  0  0  0  0
   44.9301   30.2846   48.4722 H   0  0  0  0  0  0  0  0  0  0  0  0
   46.5482   30.2122   49.3077 H   0  0  0  0  0  0  0  0  0  0  0  0
   45.2198   32.2701   49.8218 H   0  0  0  0  0  0  0  0  0  0  0  0
   46.8274   32.5869   49.1172 H   0  0  0  0  0  0  0  0  0  0  0  0
   44.9912   33.9448   48.0233 H   0  0  0  0  0  0  0  0  0  0  0  0
   44.1973   32.4571   47.5034 H   0  0  0  0  0  0  0  0  0  0  0  0
  1  2  2  0
  1 13  1  0
  3  2  1  0
  4  3  2  0
  5  4  1  0
  5  6  2  0
  6  1  1  0
  7  5  1  0
  8  7  2  0
  9  8  1  0
 10 11  1  0
 10  9  2  0
 11 12  2  0
 12  7  1  0
 13 18  1  0
 14 13  1  0
 14 15  1  0
 15 16  1  0
 16 17  1  0
 18 17  1  0
  2 19  1  0
  3 20  1  0
  8 21  1  0
  9 22  1  0
 10 23  1  0
 11 24  1  0
 13 25  1  0
 14 26  1  0
 14 27  1  0
 15 28  1  0
 15 29  1  0
 16 30  1  0
 16 31  1  0
 17 32  1  0
 17 33  1  0
 18 34  1  0
 18 35  1  0
M  ISO  8  19  14  20  14  21  14  22  14  23  14  24  14  25  13  26  13
M  ISO  8  27  13  28  13  29  13  30  13  31  13  32  13  33  13  34  13
M  ISO  1  35  13
M  END
>  <minimizedAffinity>  (1) 
-6.25454712

>  <minimizedRMSD>  (1) 
0.320149362

$$$$
