
     RDKit          3D

 38 40  0  0  1  0  0  0  0  0999 V2000
   46.3460   33.1380   45.5680 C   0  0  0  0  0  0  0  0  0  0  0  0
   45.3280   33.9750   46.0150 C   0  0  0  0  0  0  0  0  0  0  0  0
   44.9100   35.0110   45.1500 C   0  0  0  0  0  0  0  0  0  0  0  0
   45.5300   35.1280   43.9260 N   0  0  0  0  0  0  0  0  0  0  0  0
   46.5120   34.2750   43.5580 C   0  0  0  0  0  0  0  0  0  0  0  0
   46.9220   33.2920   44.3610 N   0  0  0  0  0  0  0  0  0  0  0  0
   46.8510   32.0250   46.4010 C   0  0  2  0  0  0  0  0  0  0  0  0
   47.4700   30.9330   45.5770 C   0  0  0  0  0  0  0  0  0  0  0  0
   48.0450   29.9150   46.5570 C   0  0  0  0  0  0  0  0  0  0  0  0
   46.9410   29.3400   47.4050 C   0  0  0  0  0  0  0  0  0  0  0  0
   46.2480   30.4320   48.1370 C   0  0  0  0  0  0  0  0  0  0  0  0
   45.7450   31.4960   47.2550 C   0  0  1  0  0  0  0  0  0  0  0  0
   45.3160   32.6220   48.2330 C   0  0  0  0  0  0  0  0  0  0  0  0
   47.1100   34.4340   42.2290 C   0  0  0  0  0  0  0  0  0  0  0  0
   48.1600   35.2630   42.0270 C   0  0  0  0  0  0  0  0  0  0  0  0
   48.7550   35.4460   40.7870 C   0  0  0  0  0  0  0  0  0  0  0  0
   48.2170   34.7260   39.7410 C   0  0  0  0  0  0  0  0  0  0  0  0
   47.1510   33.8790   39.9330 C   0  0  0  0  0  0  0  0  0  0  0  0
   46.6010   33.7360   41.1720 N   0  0  0  0  0  0  0  0  0  0  0  0
   44.8665   33.8354   47.0037 H   0  0  0  0  0  0  0  0  0  0  0  0
   44.1104   35.7058   45.4465 H   0  0  0  0  0  0  0  0  0  0  0  0
   47.6505   32.4177   47.0464 H   0  0  0  0  0  0  0  0  0  0  0  0
   46.7072   30.4587   44.9421 H   0  0  0  0  0  0  0  0  0  0  0  0
   48.2539   31.3323   44.9166 H   0  0  0  0  0  0  0  0  0  0  0  0
   48.5340   29.1048   45.9963 H   0  0  0  0  0  0  0  0  0  0  0  0
   48.7794   30.4129   47.2072 H   0  0  0  0  0  0  0  0  0  0  0  0
   46.2194   28.8175   46.7599 H   0  0  0  0  0  0  0  0  0  0  0  0
   47.3704   28.6325   48.1295 H   0  0  0  0  0  0  0  0  0  0  0  0
   45.3967   30.0003   48.6838 H   0  0  0  0  0  0  0  0  0  0  0  0
   46.9853   30.8903   48.8125 H   0  0  0  0  0  0  0  0  0  0  0  0
   44.9390   31.1398   46.5966 H   0  0  0  0  0  0  0  0  0  0  0  0
   45.4473   32.2773   49.2693 H   0  0  0  0  0  0  0  0  0  0  0  0
   45.9376   33.5132   48.0615 H   0  0  0  0  0  0  0  0  0  0  0  0
   44.2590   32.8736   48.0615 H   0  0  0  0  0  0  0  0  0  0  0  0
   48.5613   35.8187   42.8873 H   0  0  0  0  0  0  0  0  0  0  0  0
   49.6075   36.1268   40.6462 H   0  0  0  0  0  0  0  0  0  0  0  0
   48.6486   34.8312   38.7347 H   0  0  0  0  0  0  0  0  0  0  0  0
   46.7402   33.3143   39.0830 H   0  0  0  0  0  0  0  0  0  0  0  0
  1  2  2  0
  1  7  1  0
  3  2  1  0
  4  3  2  0
  5  4  1  0
  5  6  2  0
  6  1  1  0
  7 12  1  0
  8  7  1  0
  8  9  1  0
  9 10  1  0
 10 11  1  0
 12 11  1  0
 12 13  1  0
 14  5  1  0
 15 14  2  0
 16 15  1  0
 17 18  1  0
 17 16  2  0
 18 19  2  0
 19 14  1  0
  2 20  1  0
  3 21  1  0
  7 22  1  1
  8 23  1  0
  8 24  1  0
  9 25  1  0
  9 26  1  0
 10 27  1  0
 10 28  1  0
 11 29  1  0
 11 30  1  0
 12 31  1  6
 13 32  1  0
 13 33  1  0
 13 34  1  0
 15 35  1  0
 16 36  1  0
 17 37  1  0
 18 38  1  0
M  ISO  8  20  14  21  14  22  13  23  13  24  13  25  13  26  13  27  13
M  ISO  8  28  13  29  13  30  13  31  13  32   8  33   8  34   8  35  14
M  ISO  3  36  14  37  14  38  14
M  END
>  <minimizedAffinity>  (1) 
-5.77942848

>  <minimizedRMSD>  (1) 
1.13945878

$$$$
