
     RDKit          3D

 41 43  0  0  1  0  0  0  0  0999 V2000
   47.5400   31.9190   46.3770 C   0  0  2  0  0  0  0  0  0  0  0  0
   47.2590   30.4830   45.9630 C   0  0  0  0  0  0  0  0  0  0  0  0
   48.1330   29.5770   46.7890 C   0  0  0  0  0  0  0  0  0  0  0  0
   48.0520   29.8240   48.2550 C   0  0  0  0  0  0  0  0  0  0  0  0
   48.1840   31.2560   48.5970 C   0  0  0  0  0  0  0  0  0  0  0  0
   47.2040   32.1000   47.8000 C   0  0  2  0  0  0  0  0  0  0  0  0
   46.8830   32.8940   45.5150 C   0  0  0  0  0  0  0  0  0  0  0  0
   45.7620   33.5660   46.0080 C   0  0  0  0  0  0  0  0  0  0  0  0
   45.1060   34.4960   45.1710 C   0  0  0  0  0  0  0  0  0  0  0  0
   45.6370   34.6760   43.8990 N   0  0  0  0  0  0  0  0  0  0  0  0
   46.7190   33.9960   43.4940 C   0  0  0  0  0  0  0  0  0  0  0  0
   47.3420   33.1150   44.2800 N   0  0  0  0  0  0  0  0  0  0  0  0
   47.2210   34.2440   42.1370 C   0  0  0  0  0  0  0  0  0  0  0  0
   48.2000   35.1650   41.8900 C   0  0  0  0  0  0  0  0  0  0  0  0
   48.7130   35.4430   40.6440 C   0  0  0  0  0  0  0  0  0  0  0  0
   48.1610   34.7090   39.6120 C   0  0  0  0  0  0  0  0  0  0  0  0
   47.1670   33.7700   39.8330 C   0  0  0  0  0  0  0  0  0  0  0  0
   46.7020   33.5430   41.0990 N   0  0  0  0  0  0  0  0  0  0  0  0
   45.8740   31.7280   48.1060 N   0  0  0  0  0  0  0  0  0  0  0  0
   45.2010   30.8210   49.0100 C   0  0  0  0  0  0  0  0  0  0  0  0
   44.6480   31.3970   50.0020 O   0  0  0  0  0  0  0  0  0  0  0  0
   45.1200   29.4150   48.8720 N   0  0  0  0  0  0  0  0  0  0  0  0
   48.6159   32.1092   46.2495 H   0  0  0  0  0  0  0  0  0  0  0  0
   46.2003   30.2440   46.1419 H   0  0  0  0  0  0  0  0  0  0  0  0
   47.4736   30.3466   44.8928 H   0  0  0  0  0  0  0  0  0  0  0  0
   47.8311   28.5368   46.5969 H   0  0  0  0  0  0  0  0  0  0  0  0
   49.1720   29.7804   46.4903 H   0  0  0  0  0  0  0  0  0  0  0  0
   47.0794   29.4625   48.6202 H   0  0  0  0  0  0  0  0  0  0  0  0
   48.8874   29.2890   48.7303 H   0  0  0  0  0  0  0  0  0  0  0  0
   47.9832   31.3893   49.6703 H   0  0  0  0  0  0  0  0  0  0  0  0
   49.2058   31.5815   48.3522 H   0  0  0  0  0  0  0  0  0  0  0  0
   47.2801   33.1673   48.0550 H   0  0  0  0  0  0  0  0  0  0  0  0
   45.3972   33.3748   47.0280 H   0  0  0  0  0  0  0  0  0  0  0  0
   44.2183   35.0506   45.5093 H   0  0  0  0  0  0  0  0  0  0  0  0
   48.6060   35.7227   42.7468 H   0  0  0  0  0  0  0  0  0  0  0  0
   49.5020   36.1921   40.4820 H   0  0  0  0  0  0  0  0  0  0  0  0
   48.5210   34.8749   38.5859 H   0  0  0  0  0  0  0  0  0  0  0  0
   46.7499   33.2045   38.9867 H   0  0  0  0  0  0  0  0  0  0  0  0
   45.1988   32.2454   47.5252 H   0  0  0  0  0  0  0  0  0  0  0  0
   44.6144   28.8568   49.5746 H   0  0  0  0  0  0  0  0  0  0  0  0
   45.5667   28.9498   48.0689 H   0  0  0  0  0  0  0  0  0  0  0  0
  1  6  1  0
  2  1  1  0
  2  3  1  0
  3  4  1  0
  4  5  1  0
  6 19  1  0
  6  5  1  0
  7  8  2  0
  7  1  1  0
  9  8  1  0
 10  9  2  0
 11 10  1  0
 11 12  2  0
 12  7  1  0
 13 11  1  0
 14 13  2  0
 15 14  1  0
 16 17  1  0
 16 15  2  0
 17 18  2  0
 18 13  1  0
 19 20  1  0
 20 21  2  0
 22 20  1  0
  1 23  1  1
  2 24  1  0
  2 25  1  0
  3 26  1  0
  3 27  1  0
  4 28  1  0
  4 29  1  0
  5 30  1  0
  5 31  1  0
  6 32  1  1
  8 33  1  0
  9 34  1  0
 14 35  1  0
 15 36  1  0
 16 37  1  0
 17 38  1  0
 19 39  1  0
 22 40  1  0
 22 41  1  0
M  ISO  8  23  13  24  13  25  13  26  13  27  13  28  13  29  13  30  13
M  ISO  8  31  13  32  13  33  14  34  14  35  14  36  14  37  14  38  14
M  END
>  <minimizedAffinity>  (1) 
-5.98107815

>  <minimizedRMSD>  (1) 
1.66987169

$$$$
