
     RDKit          3D

 51 54  0  0  1  0  0  0  0  0999 V2000
   47.0580   32.4720   45.3460 C   0  0  0  0  0  0  0  0  0  0  0  0
   46.0080   33.1470   45.9480 C   0  0  0  0  0  0  0  0  0  0  0  0
   45.3670   34.2030   45.2590 C   0  0  0  0  0  0  0  0  0  0  0  0
   45.8560   34.4980   43.9880 N   0  0  0  0  0  0  0  0  0  0  0  0
   46.8760   33.8080   43.4640 C   0  0  0  0  0  0  0  0  0  0  0  0
   47.4650   32.8150   44.1280 N   0  0  0  0  0  0  0  0  0  0  0  0
   47.6640   31.3800   46.0820 C   0  0  2  0  0  0  0  0  0  0  0  0
   47.2640   29.9980   45.4850 C   0  0  0  0  0  0  0  0  0  0  0  0
   48.0260   28.9200   46.1720 C   0  0  0  0  0  0  0  0  0  0  0  0
   48.1230   29.0270   47.6570 C   0  0  0  0  0  0  0  0  0  0  0  0
   48.2670   30.3740   48.1510 C   0  0  0  0  0  0  0  0  0  0  0  0
   47.3080   31.3860   47.4870 C   0  0  2  0  0  0  0  0  0  0  0  0
   45.9340   30.9100   47.6590 N   0  0  0  0  0  0  0  0  0  0  0  0
   45.2050   30.5580   48.8080 C   0  0  0  0  0  0  0  0  0  0  0  0
   44.7020   31.4260   49.6100 O   0  0  0  0  0  0  0  0  0  0  0  0
   45.0570   29.1530   49.0140 N   0  0  0  0  0  0  0  0  0  0  0  0
   47.3530   34.1840   42.1300 C   0  0  0  0  0  0  0  0  0  0  0  0
   48.3680   35.1020   41.9740 C   0  0  0  0  0  0  0  0  0  0  0  0
   48.8700   35.5030   40.7510 C   0  0  0  0  0  0  0  0  0  0  0  0
   48.2710   34.9070   39.6560 C   0  0  0  0  0  0  0  0  0  0  0  0
   47.2580   33.9910   39.7980 C   0  0  0  0  0  0  0  0  0  0  0  0
   46.8030   33.6330   41.0380 N   0  0  0  0  0  0  0  0  0  0  0  0
   49.0030   33.5660   37.4150 Cl  0  0  0  0  0  0  0  0  0  0  0  0
   47.3080   33.1040   37.4880 C   0  0  0  0  0  0  0  0  0  0  0  0
   46.6210   33.3590   38.6510 C   0  0  0  0  0  0  0  0  0  0  0  0
   45.2990   32.9670   38.6270 C   0  0  0  0  0  0  0  0  0  0  0  0
   44.6900   32.3740   37.5560 C   0  0  0  0  0  0  0  0  0  0  0  0
   45.4160   32.1320   36.4040 C   0  0  0  0  0  0  0  0  0  0  0  0
   46.7430   32.5080   36.3800 C   0  0  0  0  0  0  0  0  0  0  0  0
   47.7280   32.2300   34.9400 Cl  0  0  0  0  0  0  0  0  0  0  0  0
   45.6746   32.8629   46.9570 H   0  0  0  0  0  0  0  0  0  0  0  0
   44.5287   34.7606   45.7021 H   0  0  0  0  0  0  0  0  0  0  0  0
   48.7494   31.5330   45.9896 H   0  0  0  0  0  0  0  0  0  0  0  0
   46.1860   29.8343   45.6302 H   0  0  0  0  0  0  0  0  0  0  0  0
   47.4964   29.9825   44.4099 H   0  0  0  0  0  0  0  0  0  0  0  0
   47.5399   27.9620   45.9354 H   0  0  0  0  0  0  0  0  0  0  0  0
   49.0583   29.0069   45.8021 H   0  0  0  0  0  0  0  0  0  0  0  0
   47.2092   28.5970   48.0929 H   0  0  0  0  0  0  0  0  0  0  0  0
   49.0350   28.4867   47.9508 H   0  0  0  0  0  0  0  0  0  0  0  0
   48.0715   30.3694   49.2335 H   0  0  0  0  0  0  0  0  0  0  0  0
   49.2907   30.6964   47.9101 H   0  0  0  0  0  0  0  0  0  0  0  0
   47.3815   32.3948   47.9193 H   0  0  0  0  0  0  0  0  0  0  0  0
   45.4066   30.8162   46.7793 H   0  0  0  0  0  0  0  0  0  0  0  0
   44.5369   28.8044   49.8318 H   0  0  0  0  0  0  0  0  0  0  0  0
   45.4704   28.4880   48.3448 H   0  0  0  0  0  0  0  0  0  0  0  0
   48.8067   35.5439   42.8808 H   0  0  0  0  0  0  0  0  0  0  0  0
   49.6823   36.2385   40.6555 H   0  0  0  0  0  0  0  0  0  0  0  0
   48.6149   35.1736   38.6457 H   0  0  0  0  0  0  0  0  0  0  0  0
   44.6946   33.1430   39.5290 H   0  0  0  0  0  0  0  0  0  0  0  0
   43.6284   32.0910   37.6103 H   0  0  0  0  0  0  0  0  0  0  0  0
   44.9483   31.6530   35.5312 H   0  0  0  0  0  0  0  0  0  0  0  0
  1  2  2  0
  1  7  1  0
  3  2  1  0
  4  3  2  0
  5  4  1  0
  5  6  2  0
  6  1  1  0
  7 12  1  0
  8  7  1  0
  8  9  1  0
  9 10  1  0
 10 11  1  0
 12 13  1  0
 12 11  1  0
 13 14  1  0
 14 16  1  0
 14 15  2  0
 17  5  1  0
 18 17  2  0
 19 18  1  0
 20 21  1  0
 20 19  2  0
 21 22  2  0
 22 17  1  0
 23 24  1  0
 24 25  2  0
 25 21  1  0
 26 25  1  0
 27 26  2  0
 28 27  1  0
 29 28  2  0
 29 24  1  0
 30 29  1  0
  2 31  1  0
  3 32  1  0
  7 33  1  1
  8 34  1  0
  8 35  1  0
  9 36  1  0
  9 37  1  0
 10 38  1  0
 10 39  1  0
 11 40  1  0
 11 41  1  0
 12 42  1  1
 13 43  1  0
 16 44  1  0
 16 45  1  0
 18 46  1  0
 19 47  1  0
 20 48  1  0
 26 49  1  0
 27 50  1  0
 28 51  1  0
M  ISO  8  31  14  32  14  33  13  34  13  35  13  36  13  37  13  38  13
M  ISO  8  39  13  40  13  41  13  42  13  46  14  47  14  48  14  49  14
M  ISO  2  50  14  51  14
M  END
>  <minimizedAffinity>  (1) 
-6.72997522

>  <minimizedRMSD>  (1) 
0.911877096

$$$$
