
     RDKit          3D

 56 59  0  0  1  0  0  0  0  0999 V2000
   46.9780   32.7470   45.5080 C   0  0  0  0  0  0  0  0  0  0  0  0
   45.8580   33.3930   46.0110 C   0  0  0  0  0  0  0  0  0  0  0  0
   45.2010   34.3680   45.2230 C   0  0  0  0  0  0  0  0  0  0  0  0
   45.7460   34.6160   43.9650 N   0  0  0  0  0  0  0  0  0  0  0  0
   46.8300   33.9580   43.5430 C   0  0  0  0  0  0  0  0  0  0  0  0
   47.4340   33.0410   44.2980 N   0  0  0  0  0  0  0  0  0  0  0  0
   47.6010   31.7430   46.3460 C   0  0  2  0  0  0  0  0  0  0  0  0
   47.3050   30.3020   45.8270 C   0  0  0  0  0  0  0  0  0  0  0  0
   48.1100   29.3260   46.6180 C   0  0  0  0  0  0  0  0  0  0  0  0
   48.1070   29.5280   48.0970 C   0  0  0  0  0  0  0  0  0  0  0  0
   48.1470   30.9090   48.5080 C   0  0  0  0  0  0  0  0  0  0  0  0
   47.1760   31.8210   47.7290 C   0  0  2  0  0  0  0  0  0  0  0  0
   45.8210   31.2800   47.8670 N   0  0  0  0  0  0  0  0  0  0  0  0
   45.1480   30.7210   48.9670 C   0  0  0  0  0  0  0  0  0  0  0  0
   44.6560   31.4290   49.9190 O   0  0  0  0  0  0  0  0  0  0  0  0
   45.0430   29.2980   48.9430 N   0  0  0  0  0  0  0  0  0  0  0  0
   47.3620   34.2810   42.2150 C   0  0  0  0  0  0  0  0  0  0  0  0
   48.2760   35.2960   42.0410 C   0  0  0  0  0  0  0  0  0  0  0  0
   48.8250   35.6670   40.8400 C   0  0  0  0  0  0  0  0  0  0  0  0
   48.3800   34.9190   39.7600 C   0  0  0  0  0  0  0  0  0  0  0  0
   47.4690   33.9020   39.9090 C   0  0  0  0  0  0  0  0  0  0  0  0
   46.9570   33.5810   41.1430 N   0  0  0  0  0  0  0  0  0  0  0  0
   47.0140   33.1380   38.8000 N   0  0  0  0  0  0  0  0  0  0  0  0
   47.4650   33.3710   37.4490 C   0  0  0  0  0  0  0  0  0  0  0  0
   46.5010   32.8260   36.4230 C   0  0  0  0  0  0  0  0  0  0  0  0
   45.0620   32.9770   36.8630 C   0  0  0  0  0  0  0  0  0  0  0  0
   44.7860   32.4350   38.2250 C   0  0  0  0  0  0  0  0  0  0  0  0
   46.0570   32.0610   38.9510 C   0  0  0  0  0  0  0  0  0  0  0  0
   45.4830   33.1490   47.0159 H   0  0  0  0  0  0  0  0  0  0  0  0
   44.3089   34.9008   45.5840 H   0  0  0  0  0  0  0  0  0  0  0  0
   48.6798   31.9519   46.2948 H   0  0  0  0  0  0  0  0  0  0  0  0
   46.2344   30.0796   45.9465 H   0  0  0  0  0  0  0  0  0  0  0  0
   47.5724   30.2281   44.7626 H   0  0  0  0  0  0  0  0  0  0  0  0
   47.7154   28.3196   46.4142 H   0  0  0  0  0  0  0  0  0  0  0  0
   49.1527   29.4713   46.2991 H   0  0  0  0  0  0  0  0  0  0  0  0
   47.1919   29.0738   48.5047 H   0  0  0  0  0  0  0  0  0  0  0  0
   49.0251   29.0589   48.4804 H   0  0  0  0  0  0  0  0  0  0  0  0
   47.8889   30.9602   49.5761 H   0  0  0  0  0  0  0  0  0  0  0  0
   49.1638   31.2745   48.3016 H   0  0  0  0  0  0  0  0  0  0  0  0
   47.1781   32.8590   48.0930 H   0  0  0  0  0  0  0  0  0  0  0  0
   45.2616   31.3159   47.0029 H   0  0  0  0  0  0  0  0  0  0  0  0
   44.5650   28.8039   49.7100 H   0  0  0  0  0  0  0  0  0  0  0  0
   45.4452   28.7651   48.1587 H   0  0  0  0  0  0  0  0  0  0  0  0
   48.5907   35.8533   42.9357 H   0  0  0  0  0  0  0  0  0  0  0  0
   49.5536   36.4852   40.7420 H   0  0  0  0  0  0  0  0  0  0  0  0
   48.7676   35.1467   38.7560 H   0  0  0  0  0  0  0  0  0  0  0  0
   47.5723   34.4546   37.2935 H   0  0  0  0  0  0  0  0  0  0  0  0
   48.4253   32.8504   37.3195 H   0  0  0  0  0  0  0  0  0  0  0  0
   46.7146   31.7583   36.2666 H   0  0  0  0  0  0  0  0  0  0  0  0
   46.6343   33.3982   35.4931 H   0  0  0  0  0  0  0  0  0  0  0  0
   44.8090   34.0475   36.8585 H   0  0  0  0  0  0  0  0  0  0  0  0
   44.4500   32.3953   36.1580 H   0  0  0  0  0  0  0  0  0  0  0  0
   44.2537   33.1990   38.8106 H   0  0  0  0  0  0  0  0  0  0  0  0
   44.1773   31.5256   38.1130 H   0  0  0  0  0  0  0  0  0  0  0  0
   46.4699   31.1364   38.5214 H   0  0  0  0  0  0  0  0  0  0  0  0
   45.8441   31.8965   40.0176 H   0  0  0  0  0  0  0  0  0  0  0  0
  1  2  2  0
  1  7  1  0
  3  2  1  0
  4  3  2  0
  5  4  1  0
  5  6  2  0
  6  1  1  0
  7 12  1  0
  8  7  1  0
  8  9  1  0
  9 10  1  0
 10 11  1  0
 12 13  1  0
 12 11  1  0
 13 14  1  0
 14 15  2  0
 16 14  1  0
 17  5  1  0
 18 17  2  0
 19 18  1  0
 20 21  1  0
 20 19  2  0
 21 22  2  0
 22 17  1  0
 23 28  1  0
 23 21  1  0
 24 23  1  0
 25 26  1  0
 25 24  1  0
 26 27  1  0
 27 28  1  0
  2 29  1  0
  3 30  1  0
  7 31  1  1
  8 32  1  0
  8 33  1  0
  9 34  1  0
  9 35  1  0
 10 36  1  0
 10 37  1  0
 11 38  1  0
 11 39  1  0
 12 40  1  1
 13 41  1  0
 16 42  1  0
 16 43  1  0
 18 44  1  0
 19 45  1  0
 20 46  1  0
 24 47  1  0
 24 48  1  0
 25 49  1  0
 25 50  1  0
 26 51  1  0
 26 52  1  0
 27 53  1  0
 27 54  1  0
 28 55  1  0
 28 56  1  0
M  ISO  8  29  14  30  14  31  13  32  13  33  13  34  13  35  13  36  13
M  ISO  8  37  13  38  13  39  13  40  13  44  14  45  14  46  14  47  13
M  ISO  8  48  13  49  13  50  13  51  13  52  13  53  13  54  13  55  13
M  ISO  1  56  13
M  END
>  <minimizedAffinity>  (1) 
-6.73503256

>  <minimizedRMSD>  (1) 
0.320838958

$$$$
