
     RDKit          3D

 50 53  0  0  1  0  0  0  0  0999 V2000
   46.9560   32.7540   45.5310 C   0  0  0  0  0  0  0  0  0  0  0  0
   45.8700   33.4260   46.0710 C   0  0  0  0  0  0  0  0  0  0  0  0
   45.1890   34.3930   45.2930 C   0  0  0  0  0  0  0  0  0  0  0  0
   45.6740   34.6070   44.0060 N   0  0  0  0  0  0  0  0  0  0  0  0
   46.7300   33.9250   43.5490 C   0  0  0  0  0  0  0  0  0  0  0  0
   47.3600   33.0150   44.2930 N   0  0  0  0  0  0  0  0  0  0  0  0
   47.6030   31.7590   46.3610 C   0  0  2  0  0  0  0  0  0  0  0  0
   47.3570   30.3180   45.8170 C   0  0  0  0  0  0  0  0  0  0  0  0
   48.1630   29.3450   46.6040 C   0  0  0  0  0  0  0  0  0  0  0  0
   48.1720   29.5410   48.0820 C   0  0  0  0  0  0  0  0  0  0  0  0
   48.1670   30.9160   48.5100 C   0  0  0  0  0  0  0  0  0  0  0  0
   47.1660   31.8070   47.7420 C   0  0  2  0  0  0  0  0  0  0  0  0
   45.8300   31.2190   47.8630 N   0  0  0  0  0  0  0  0  0  0  0  0
   45.1510   30.6730   48.9640 C   0  0  0  0  0  0  0  0  0  0  0  0
   44.6050   31.3920   49.8770 O   0  0  0  0  0  0  0  0  0  0  0  0
   45.1030   29.2460   48.9920 N   0  0  0  0  0  0  0  0  0  0  0  0
   47.2060   34.2110   42.1890 C   0  0  0  0  0  0  0  0  0  0  0  0
   48.2520   35.0830   41.9750 C   0  0  0  0  0  0  0  0  0  0  0  0
   48.7580   35.4070   40.7390 C   0  0  0  0  0  0  0  0  0  0  0  0
   48.1230   34.7750   39.6790 C   0  0  0  0  0  0  0  0  0  0  0  0
   47.0790   33.9020   39.8700 C   0  0  0  0  0  0  0  0  0  0  0  0
   46.6210   33.6220   41.1360 N   0  0  0  0  0  0  0  0  0  0  0  0
   46.3780   33.2120   38.7910 C   0  0  0  0  0  0  0  0  0  0  0  0
   46.7600   33.3240   37.4700 C   0  0  0  0  0  0  0  0  0  0  0  0
   46.1370   32.6970   36.4120 C   0  0  0  0  0  0  0  0  0  0  0  0
   45.0460   31.8910   36.6660 C   0  0  0  0  0  0  0  0  0  0  0  0
   44.6710   31.7850   37.9890 C   0  0  0  0  0  0  0  0  0  0  0  0
   45.3110   32.4170   38.9890 N   0  0  0  0  0  0  0  0  0  0  0  0
   45.5396   33.2091   47.0976 H   0  0  0  0  0  0  0  0  0  0  0  0
   44.3225   34.9459   45.6848 H   0  0  0  0  0  0  0  0  0  0  0  0
   48.6756   32.0002   46.3243 H   0  0  0  0  0  0  0  0  0  0  0  0
   46.2896   30.0688   45.9090 H   0  0  0  0  0  0  0  0  0  0  0  0
   47.6555   30.2700   44.7594 H   0  0  0  0  0  0  0  0  0  0  0  0
   47.7666   28.3392   46.4012 H   0  0  0  0  0  0  0  0  0  0  0  0
   49.2037   29.4952   46.2808 H   0  0  0  0  0  0  0  0  0  0  0  0
   47.2795   29.0503   48.4975 H   0  0  0  0  0  0  0  0  0  0  0  0
   49.1153   29.1075   48.4456 H   0  0  0  0  0  0  0  0  0  0  0  0
   47.9075   30.9452   49.5786 H   0  0  0  0  0  0  0  0  0  0  0  0
   49.1713   31.3168   48.3081 H   0  0  0  0  0  0  0  0  0  0  0  0
   47.1278   32.8384   48.1224 H   0  0  0  0  0  0  0  0  0  0  0  0
   45.2931   31.2032   46.9841 H   0  0  0  0  0  0  0  0  0  0  0  0
   44.6242   28.7619   49.7648 H   0  0  0  0  0  0  0  0  0  0  0  0
   45.5472   28.7009   48.2394 H   0  0  0  0  0  0  0  0  0  0  0  0
   48.7143   35.5527   42.8557 H   0  0  0  0  0  0  0  0  0  0  0  0
   49.5949   36.1075   40.6015 H   0  0  0  0  0  0  0  0  0  0  0  0
   48.4661   34.9793   38.6540 H   0  0  0  0  0  0  0  0  0  0  0  0
   47.6272   33.9618   37.2439 H   0  0  0  0  0  0  0  0  0  0  0  0
   46.5029   32.8366   35.3841 H   0  0  0  0  0  0  0  0  0  0  0  0
   44.5086   31.3655   35.8628 H   0  0  0  0  0  0  0  0  0  0  0  0
   43.8062   31.1527   38.2385 H   0  0  0  0  0  0  0  0  0  0  0  0
  1  2  2  0
  1  7  1  0
  3  2  1  0
  4  3  2  0
  5  4  1  0
  5  6  2  0
  6  1  1  0
  7 12  1  0
  8  7  1  0
  8  9  1  0
  9 10  1  0
 10 11  1  0
 12 13  1  0
 12 11  1  0
 13 14  1  0
 14 16  1  0
 14 15  2  0
 17  5  1  0
 18 17  2  0
 19 18  1  0
 20 21  1  0
 20 19  2  0
 21 22  2  0
 22 17  1  0
 23 28  1  0
 23 21  1  0
 24 23  2  0
 25 26  2  0
 25 24  1  0
 26 27  1  0
 27 28  2  0
  2 29  1  0
  3 30  1  0
  7 31  1  1
  8 32  1  0
  8 33  1  0
  9 34  1  0
  9 35  1  0
 10 36  1  0
 10 37  1  0
 11 38  1  0
 11 39  1  0
 12 40  1  1
 13 41  1  0
 16 42  1  0
 16 43  1  0
 18 44  1  0
 19 45  1  0
 20 46  1  0
 24 47  1  0
 25 48  1  0
 26 49  1  0
 27 50  1  0
M  ISO  8  29  14  30  14  31  13  32  13  33  13  34  13  35  13  36  13
M  ISO  8  37  13  38  13  39  13  40  13  44  14  45  14  46  14  47  14
M  ISO  3  48  14  49  14  50  14
M  END
>  <minimizedAffinity>  (1) 
-6.4285264

>  <minimizedRMSD>  (1) 
0.295123219

$$$$
