
     RDKit          3D

 48 51  0  0  1  0  0  0  0  0999 V2000
   46.9720   32.2250   45.1890 C   0  0  0  0  0  0  0  0  0  0  0  0
   45.8980   32.8560   45.8060 C   0  0  0  0  0  0  0  0  0  0  0  0
   45.3920   34.0590   45.2620 C   0  0  0  0  0  0  0  0  0  0  0  0
   46.0250   34.5400   44.1200 N   0  0  0  0  0  0  0  0  0  0  0  0
   47.0580   33.8820   43.5780 C   0  0  0  0  0  0  0  0  0  0  0  0
   47.5210   32.7490   44.1010 N   0  0  0  0  0  0  0  0  0  0  0  0
   47.4410   30.9840   45.7690 C   0  0  2  0  0  0  0  0  0  0  0  0
   46.6500   29.7610   45.2120 C   0  0  0  0  0  0  0  0  0  0  0  0
   47.2670   28.5010   45.7140 C   0  0  0  0  0  0  0  0  0  0  0  0
   47.6400   28.4810   47.1570 C   0  0  0  0  0  0  0  0  0  0  0  0
   48.1570   29.7300   47.6600 C   0  0  0  0  0  0  0  0  0  0  0  0
   47.3430   30.9650   47.2140 C   0  0  2  0  0  0  0  0  0  0  0  0
   45.9490   30.7770   47.6200 N   0  0  0  0  0  0  0  0  0  0  0  0
   45.3610   30.6060   48.8860 C   0  0  0  0  0  0  0  0  0  0  0  0
   45.1710   31.5760   49.7060 O   0  0  0  0  0  0  0  0  0  0  0  0
   44.9810   29.2640   49.1900 N   0  0  0  0  0  0  0  0  0  0  0  0
   47.6920   34.4560   42.3860 C   0  0  0  0  0  0  0  0  0  0  0  0
   48.6040   35.4820   42.4900 C   0  0  0  0  0  0  0  0  0  0  0  0
   49.2450   36.0790   41.4340 C   0  0  0  0  0  0  0  0  0  0  0  0
   48.9050   35.5670   40.2070 C   0  0  0  0  0  0  0  0  0  0  0  0
   47.9890   34.5340   40.0670 C   0  0  0  0  0  0  0  0  0  0  0  0
   47.3830   33.9800   41.1700 N   0  0  0  0  0  0  0  0  0  0  0  0
   47.6200   33.9830   38.7670 C   0  0  0  0  0  0  0  0  0  0  0  0
   46.6700   32.9980   38.5540 C   0  0  0  0  0  0  0  0  0  0  0  0
   46.5890   32.7270   37.1880 C   0  0  0  0  0  0  0  0  0  0  0  0
   47.4980   33.5610   36.6090 N   0  0  0  0  0  0  0  0  0  0  0  0
   48.0840   34.2800   37.5440 N   0  0  0  0  0  0  0  0  0  0  0  0
   45.4454   32.4229   46.7102 H   0  0  0  0  0  0  0  0  0  0  0  0
   44.5418   34.5874   45.7180 H   0  0  0  0  0  0  0  0  0  0  0  0
   48.5016   30.9136   45.4860 H   0  0  0  0  0  0  0  0  0  0  0  0
   46.6828   29.7728   44.1126 H   0  0  0  0  0  0  0  0  0  0  0  0
   45.6040   29.8166   45.5479 H   0  0  0  0  0  0  0  0  0  0  0  0
   46.5507   27.6843   45.5411 H   0  0  0  0  0  0  0  0  0  0  0  0
   48.2136   28.3968   45.1635 H   0  0  0  0  0  0  0  0  0  0  0  0
   46.7439   28.2209   47.7396 H   0  0  0  0  0  0  0  0  0  0  0  0
   48.4499   27.7438   47.2599 H   0  0  0  0  0  0  0  0  0  0  0  0
   48.1526   29.6899   48.7593 H   0  0  0  0  0  0  0  0  0  0  0  0
   49.1701   29.8473   47.2478 H   0  0  0  0  0  0  0  0  0  0  0  0
   47.7097   31.9029   47.6566 H   0  0  0  0  0  0  0  0  0  0  0  0
   45.2786   30.7684   46.8381 H   0  0  0  0  0  0  0  0  0  0  0  0
   44.5425   29.0456   50.0961 H   0  0  0  0  0  0  0  0  0  0  0  0
   45.1453   28.5141   48.5033 H   0  0  0  0  0  0  0  0  0  0  0  0
   48.8372   35.8523   43.4992 H   0  0  0  0  0  0  0  0  0  0  0  0
   49.9690   36.8975   41.5600 H   0  0  0  0  0  0  0  0  0  0  0  0
   49.3735   35.9889   39.3056 H   0  0  0  0  0  0  0  0  0  0  0  0
   46.0740   32.5073   39.3376 H   0  0  0  0  0  0  0  0  0  0  0  0
   45.9341   31.9988   36.6873 H   0  0  0  0  0  0  0  0  0  0  0  0
   47.6955   33.6198   35.5998 H   0  0  0  0  0  0  0  0  0  0  0  0
  1  7  1  0
  1  2  2  0
  3  2  1  0
  4  3  2  0
  5  6  2  0
  5  4  1  0
  6  1  1  0
  7 12  1  0
  8  9  1  0
  8  7  1  0
  9 10  1  0
 10 11  1  0
 12 13  1  0
 12 11  1  0
 13 14  1  0
 14 16  1  0
 14 15  2  0
 17 18  2  0
 17  5  1  0
 19 18  1  0
 20 19  2  0
 21 20  1  0
 21 22  2  0
 22 17  1  0
 23 21  1  0
 24 23  1  0
 25 24  2  0
 26 25  1  0
 26 27  1  0
 27 23  2  0
  2 28  1  0
  3 29  1  0
  7 30  1  1
  8 31  1  0
  8 32  1  0
  9 33  1  0
  9 34  1  0
 10 35  1  0
 10 36  1  0
 11 37  1  0
 11 38  1  0
 12 39  1  1
 13 40  1  0
 16 41  1  0
 16 42  1  0
 18 43  1  0
 19 44  1  0
 20 45  1  0
 24 46  1  0
 25 47  1  0
 26 48  1  0
M  ISO  8  28  14  29  14  30  13  31  13  32  13  33  13  34  13  35  13
M  ISO  8  36  13  37  13  38  13  39  13  43  14  44  14  45  14  46  14
M  ISO  2  47  14  48   9
M  END
>  <minimizedAffinity>  (1) 
-6.45979166

>  <minimizedRMSD>  (1) 
1.22607946

$$$$
