
     RDKit          3D

 48 51  0  0  1  0  0  0  0  0999 V2000
   47.6160   31.7470   46.3340 C   0  0  2  0  0  0  0  0  0  0  0  0
   47.3660   30.3070   45.7970 C   0  0  0  0  0  0  0  0  0  0  0  0
   48.1740   29.3350   46.5860 C   0  0  0  0  0  0  0  0  0  0  0  0
   48.1790   29.5300   48.0630 C   0  0  0  0  0  0  0  0  0  0  0  0
   48.1810   30.9090   48.4850 C   0  0  0  0  0  0  0  0  0  0  0  0
   47.1810   31.8000   47.7150 C   0  0  2  0  0  0  0  0  0  0  0  0
   46.9680   32.7430   45.5030 C   0  0  0  0  0  0  0  0  0  0  0  0
   45.8760   33.4110   46.0400 C   0  0  0  0  0  0  0  0  0  0  0  0
   45.1960   34.3760   45.2610 C   0  0  0  0  0  0  0  0  0  0  0  0
   45.6880   34.5940   43.9770 N   0  0  0  0  0  0  0  0  0  0  0  0
   46.7470   33.9170   43.5220 C   0  0  0  0  0  0  0  0  0  0  0  0
   47.3760   33.0070   44.2680 N   0  0  0  0  0  0  0  0  0  0  0  0
   47.2280   34.2070   42.1670 C   0  0  0  0  0  0  0  0  0  0  0  0
   48.2510   35.1050   41.9550 C   0  0  0  0  0  0  0  0  0  0  0  0
   48.7540   35.4270   40.7150 C   0  0  0  0  0  0  0  0  0  0  0  0
   48.1580   34.7820   39.6620 C   0  0  0  0  0  0  0  0  0  0  0  0
   47.1380   33.8840   39.8530 C   0  0  0  0  0  0  0  0  0  0  0  0
   46.6700   33.5960   41.1080 N   0  0  0  0  0  0  0  0  0  0  0  0
   46.5530   33.2390   38.7090 C   0  0  0  0  0  0  0  0  0  0  0  0
   46.8530   33.3840   37.3560 C   0  0  0  0  0  0  0  0  0  0  0  0
   46.1400   32.6430   36.4520 C   0  0  0  0  0  0  0  0  0  0  0  0
   45.1400   31.7760   36.9530 C   0  0  0  0  0  0  0  0  0  0  0  0
   45.2750   32.0780   38.8060 S   0  0  0  0  0  0  0  0  0  0  0  0
   45.8430   31.2170   47.8410 N   0  0  0  0  0  0  0  0  0  0  0  0
   45.1610   30.6810   48.9470 C   0  0  0  0  0  0  0  0  0  0  0  0
   44.6180   31.4080   49.8540 O   0  0  0  0  0  0  0  0  0  0  0  0
   45.1080   29.2540   48.9820 N   0  0  0  0  0  0  0  0  0  0  0  0
   48.6891   31.9850   46.2924 H   0  0  0  0  0  0  0  0  0  0  0  0
   46.2985   30.0599   45.8936 H   0  0  0  0  0  0  0  0  0  0  0  0
   47.6605   30.2543   44.7385 H   0  0  0  0  0  0  0  0  0  0  0  0
   47.7811   28.3281   46.3817 H   0  0  0  0  0  0  0  0  0  0  0  0
   49.2149   29.4885   46.2652 H   0  0  0  0  0  0  0  0  0  0  0  0
   47.2820   29.0457   48.4764 H   0  0  0  0  0  0  0  0  0  0  0  0
   49.1160   29.0886   48.4333 H   0  0  0  0  0  0  0  0  0  0  0  0
   47.9247   30.9445   49.5541 H   0  0  0  0  0  0  0  0  0  0  0  0
   49.1863   31.3049   48.2787 H   0  0  0  0  0  0  0  0  0  0  0  0
   47.1461   32.8329   48.0916 H   0  0  0  0  0  0  0  0  0  0  0  0
   45.5417   33.1913   47.0647 H   0  0  0  0  0  0  0  0  0  0  0  0
   44.3251   34.9248   45.6488 H   0  0  0  0  0  0  0  0  0  0  0  0
   48.6945   35.5964   42.8335 H   0  0  0  0  0  0  0  0  0  0  0  0
   49.5733   36.1482   40.5788 H   0  0  0  0  0  0  0  0  0  0  0  0
   48.5059   34.9894   38.6393 H   0  0  0  0  0  0  0  0  0  0  0  0
   47.6414   34.0751   37.0232 H   0  0  0  0  0  0  0  0  0  0  0  0
   46.3378   32.7190   35.3726 H   0  0  0  0  0  0  0  0  0  0  0  0
   44.4633   31.1039   36.4049 H   0  0  0  0  0  0  0  0  0  0  0  0
   45.3062   31.1961   46.9622 H   0  0  0  0  0  0  0  0  0  0  0  0
   44.6276   28.7753   49.7573 H   0  0  0  0  0  0  0  0  0  0  0  0
   45.5501   28.7037   48.2320 H   0  0  0  0  0  0  0  0  0  0  0  0
  1  6  1  0
  2  1  1  0
  2  3  1  0
  3  4  1  0
  4  5  1  0
  6 24  1  0
  6  5  1  0
  7  8  2  0
  7  1  1  0
  9  8  1  0
 10  9  2  0
 11 10  1  0
 11 12  2  0
 12  7  1  0
 13 11  1  0
 14 13  2  0
 15 14  1  0
 16 17  1  0
 16 15  2  0
 17 18  2  0
 18 13  1  0
 19 23  1  0
 19 17  1  0
 20 19  2  0
 21 22  2  0
 21 20  1  0
 22 23  1  0
 24 25  1  0
 25 27  1  0
 25 26  2  0
  1 28  1  1
  2 29  1  0
  2 30  1  0
  3 31  1  0
  3 32  1  0
  4 33  1  0
  4 34  1  0
  5 35  1  0
  5 36  1  0
  6 37  1  1
  8 38  1  0
  9 39  1  0
 14 40  1  0
 15 41  1  0
 16 42  1  0
 20 43  1  0
 21 44  1  0
 22 45  1  0
 24 46  1  0
 27 47  1  0
 27 48  1  0
M  ISO  8  28  13  29  13  30  13  31  13  32  13  33  13  34  13  35  13
M  ISO  8  36  13  37  13  38  14  39  14  40  14  41  14  42  14  43  14
M  ISO  2  44  14  45  14
M  END
>  <minimizedAffinity>  (1) 
-6.32672071

>  <minimizedRMSD>  (1) 
0.245244041

$$$$
