
     RDKit          3D

 44 46  0  0  1  0  0  0  0  0999 V2000
   47.6270   31.7680   46.3630 C   0  0  2  0  0  0  0  0  0  0  0  0
   47.3960   30.3230   45.8240 C   0  0  0  0  0  0  0  0  0  0  0  0
   48.2160   29.3630   46.6220 C   0  0  0  0  0  0  0  0  0  0  0  0
   48.1910   29.5540   48.1010 C   0  0  0  0  0  0  0  0  0  0  0  0
   48.1760   30.9310   48.5220 C   0  0  0  0  0  0  0  0  0  0  0  0
   47.1790   31.8160   47.7400 C   0  0  2  0  0  0  0  0  0  0  0  0
   46.9750   32.7540   45.5250 C   0  0  0  0  0  0  0  0  0  0  0  0
   45.8830   33.4220   46.0580 C   0  0  0  0  0  0  0  0  0  0  0  0
   45.1970   34.3780   45.2710 C   0  0  0  0  0  0  0  0  0  0  0  0
   45.6870   34.5840   43.9820 N   0  0  0  0  0  0  0  0  0  0  0  0
   46.7450   33.9070   43.5320 C   0  0  0  0  0  0  0  0  0  0  0  0
   47.3780   33.0090   44.2860 N   0  0  0  0  0  0  0  0  0  0  0  0
   47.2180   34.1870   42.1730 C   0  0  0  0  0  0  0  0  0  0  0  0
   48.2170   35.1080   41.9440 C   0  0  0  0  0  0  0  0  0  0  0  0
   48.7260   35.4380   40.7140 C   0  0  0  0  0  0  0  0  0  0  0  0
   48.1520   34.7600   39.6680 C   0  0  0  0  0  0  0  0  0  0  0  0
   47.1390   33.8220   39.8640 C   0  0  0  0  0  0  0  0  0  0  0  0
   46.6780   33.5420   41.1250 N   0  0  0  0  0  0  0  0  0  0  0  0
   46.5020   33.0770   38.7540 C   0  0  0  0  0  0  0  0  0  0  0  0
   45.8450   31.2200   47.8550 N   0  0  0  0  0  0  0  0  0  0  0  0
   45.1550   30.6730   48.9510 C   0  0  0  0  0  0  0  0  0  0  0  0
   44.5970   31.3940   49.8550 O   0  0  0  0  0  0  0  0  0  0  0  0
   45.1140   29.2450   48.9830 N   0  0  0  0  0  0  0  0  0  0  0  0
   48.6975   32.0193   46.3318 H   0  0  0  0  0  0  0  0  0  0  0  0
   46.3314   30.0621   45.9159 H   0  0  0  0  0  0  0  0  0  0  0  0
   47.6932   30.2718   44.7662 H   0  0  0  0  0  0  0  0  0  0  0  0
   47.8498   28.3482   46.4075 H   0  0  0  0  0  0  0  0  0  0  0  0
   49.2583   29.5390   46.3178 H   0  0  0  0  0  0  0  0  0  0  0  0
   47.2893   29.0634   48.4962 H   0  0  0  0  0  0  0  0  0  0  0  0
   49.1222   29.1165   48.4902 H   0  0  0  0  0  0  0  0  0  0  0  0
   47.9058   30.9640   49.5878 H   0  0  0  0  0  0  0  0  0  0  0  0
   49.1806   31.3345   48.3274 H   0  0  0  0  0  0  0  0  0  0  0  0
   47.1340   32.8496   48.1137 H   0  0  0  0  0  0  0  0  0  0  0  0
   45.5520   33.2105   47.0855 H   0  0  0  0  0  0  0  0  0  0  0  0
   44.3253   34.9281   45.6552 H   0  0  0  0  0  0  0  0  0  0  0  0
   48.6412   35.6208   42.8199 H   0  0  0  0  0  0  0  0  0  0  0  0
   49.5250   36.1816   40.5777 H   0  0  0  0  0  0  0  0  0  0  0  0
   48.5013   34.9625   38.6448 H   0  0  0  0  0  0  0  0  0  0  0  0
   45.8391   32.3017   39.1656 H   0  0  0  0  0  0  0  0  0  0  0  0
   45.9142   33.7716   38.1359 H   0  0  0  0  0  0  0  0  0  0  0  0
   47.2795   32.6043   38.1359 H   0  0  0  0  0  0  0  0  0  0  0  0
   45.3164   31.1978   46.9713 H   0  0  0  0  0  0  0  0  0  0  0  0
   44.6286   28.7608   49.7517 H   0  0  0  0  0  0  0  0  0  0  0  0
   45.5699   28.6999   48.2374 H   0  0  0  0  0  0  0  0  0  0  0  0
  1  6  1  0
  2  1  1  0
  2  3  1  0
  3  4  1  0
  4  5  1  0
  6 20  1  0
  6  5  1  0
  7  8  2  0
  7  1  1  0
  9  8  1  0
 10  9  2  0
 11 10  1  0
 11 12  2  0
 12  7  1  0
 13 11  1  0
 14 13  2  0
 15 14  1  0
 16 17  1  0
 16 15  2  0
 17 18  2  0
 18 13  1  0
 19 17  1  0
 20 21  1  0
 21 23  1  0
 21 22  2  0
  1 24  1  1
  2 25  1  0
  2 26  1  0
  3 27  1  0
  3 28  1  0
  4 29  1  0
  4 30  1  0
  5 31  1  0
  5 32  1  0
  6 33  1  1
  8 34  1  0
  9 35  1  0
 14 36  1  0
 15 37  1  0
 16 38  1  0
 19 39  1  0
 19 40  1  0
 19 41  1  0
 20 42  1  0
 23 43  1  0
 23 44  1  0
M  ISO  8  24  13  25  13  26  13  27  13  28  13  29  13  30  13  31  13
M  ISO  8  32  13  33  13  34  14  35  14  36  14  37  14  38  14  39   8
M  ISO  2  40   8  41   8
M  END
>  <minimizedAffinity>  (1) 
-5.98780537

>  <minimizedRMSD>  (1) 
0.204461738

$$$$
