
     RDKit          3D

 24 26  0  0  0  0  0  0  0  0999 V2000
   48.1780   35.0600   41.9330 C   0  0  0  0  0  0  0  0  0  0  0  0
   47.0610   34.2550   42.0960 C   0  0  0  0  0  0  0  0  0  0  0  0
   46.5120   33.6620   40.9860 C   0  0  0  0  0  0  0  0  0  0  0  0
   47.0280   33.8370   39.7180 C   0  0  0  0  0  0  0  0  0  0  0  0
   46.6610   33.3620   38.5050 N   0  0  0  0  0  0  0  0  0  0  0  0
   47.5430   33.8670   37.5780 C   0  0  0  0  0  0  0  0  0  0  0  0
   48.4380   34.6420   38.2380 N   0  0  0  0  0  0  0  0  0  0  0  0
   48.1400   34.6380   39.5470 C   0  0  0  0  0  0  0  0  0  0  0  0
   48.7080   35.2450   40.6540 C   0  0  0  0  0  0  0  0  0  0  0  0
   45.1140   34.6230   45.3110 C   0  0  0  0  0  0  0  0  0  0  0  0
   45.5290   34.8690   43.9790 C   0  0  0  0  0  0  0  0  0  0  0  0
   46.5500   34.0980   43.4480 C   0  0  0  0  0  0  0  0  0  0  0  0
   47.1080   33.1450   44.2230 N   0  0  0  0  0  0  0  0  0  0  0  0
   46.7030   32.9200   45.4970 C   0  0  0  0  0  0  0  0  0  0  0  0
   45.7210   33.6530   46.0230 N   0  0  0  0  0  0  0  0  0  0  0  0
   44.0910   35.3960   45.8410 O   0  0  0  0  0  0  0  0  0  0  0  0
   48.6423   35.5482   42.8025 H   0  0  0  0  0  0  0  0  0  0  0  0
   45.6261   33.0223   41.1123 H   0  0  0  0  0  0  0  0  0  0  0  0
   45.8661   32.7363   38.3112 H   0  0  0  0  0  0  0  0  0  0  0  0
   47.5252   33.6760   36.4948 H   0  0  0  0  0  0  0  0  0  0  0  0
   49.5932   35.8849   40.5239 H   0  0  0  0  0  0  0  0  0  0  0  0
   45.0501   35.6564   43.3785 H   0  0  0  0  0  0  0  0  0  0  0  0
   47.1841   32.1332   46.0966 H   0  0  0  0  0  0  0  0  0  0  0  0
   43.6667   36.1006   45.2901 H   0  0  0  0  0  0  0  0  0  0  0  0
  1  2  2  0
  2 12  1  0
  3  2  1  0
  4  3  2  0
  5  4  1  0
  6  7  2  0
  6  5  1  0
  7  8  1  0
  8  4  1  0
  8  9  2  0
  9  1  1  0
 10 16  1  0
 10 15  2  0
 11 10  1  0
 12 11  2  0
 12 13  1  0
 13 14  2  0
 14 15  1  0
  1 17  1  0
  3 18  1  0
  5 19  1  0
  6 20  1  0
  9 21  1  0
 11 22  1  0
 14 23  1  0
 16 24  1  0
M  ISO  8  17  14  18  14  19   9  20  14  21  14  22  14  23  14  24   3
M  END
>  <minimizedAffinity>  (1) 
-5.60776663

>  <minimizedRMSD>  (1) 
1.01608479

$$$$
