
     RDKit          3D

 42 46  0  0  0  0  0  0  0  0999 V2000
   45.5310   34.7080   43.4830 C   0  0  0  0  0  0  0  0  0  0  0  0
   46.2260   33.6540   44.1070 C   0  0  0  0  0  0  0  0  0  0  0  0
   46.0550   33.4660   45.4610 C   0  0  0  0  0  0  0  0  0  0  0  0
   45.2410   34.2850   46.1260 N   0  0  0  0  0  0  0  0  0  0  0  0
   44.5720   35.3000   45.5210 C   0  0  0  0  0  0  0  0  0  0  0  0
   44.7210   35.4990   44.2160 N   0  0  0  0  0  0  0  0  0  0  0  0
   47.0320   32.6870   47.5600 C   0  0  0  0  0  0  0  0  0  0  0  0
   46.7300   32.4110   46.2190 C   0  0  0  0  0  0  0  0  0  0  0  0
   47.0810   31.1910   45.7210 C   0  0  0  0  0  0  0  0  0  0  0  0
   47.7140   30.2300   46.4720 C   0  0  0  0  0  0  0  0  0  0  0  0
   48.1460   28.9820   46.1930 N   0  0  0  0  0  0  0  0  0  0  0  0
   48.7150   28.4760   47.3560 C   0  0  0  0  0  0  0  0  0  0  0  0
   48.6180   29.4150   48.3050 N   0  0  0  0  0  0  0  0  0  0  0  0
   48.0120   30.4900   47.7850 C   0  0  0  0  0  0  0  0  0  0  0  0
   47.6670   31.7240   48.3240 C   0  0  0  0  0  0  0  0  0  0  0  0
   45.6970   34.9030   42.1170 O   0  0  0  0  0  0  0  0  0  0  0  0
   44.6010   34.8460   41.2600 C   0  0  0  0  0  0  0  0  0  0  0  0
   44.9220   33.7050   40.5900 C   0  0  0  0  0  0  0  0  0  0  0  0
   43.4240   33.5940   39.3980 S   0  0  0  0  0  0  0  0  0  0  0  0
   42.7140   35.1850   40.1380 C   0  0  0  0  0  0  0  0  0  0  0  0
   43.4700   35.4310   40.8900 N   0  0  0  0  0  0  0  0  0  0  0  0
   41.4850   35.4740   39.4740 N   0  0  0  0  0  0  0  0  0  0  0  0
   40.9180   35.4850   38.1520 C   0  0  0  0  0  0  0  0  0  0  0  0
   39.8090   34.4350   38.3490 C   0  0  0  0  0  0  0  0  0  0  0  0
   39.3380   34.7680   39.7700 C   0  0  0  0  0  0  0  0  0  0  0  0
   40.2800   35.8920   40.2140 C   0  0  0  0  0  0  0  0  0  0  0  0
   46.8899   32.9962   43.5268 H   0  0  0  0  0  0  0  0  0  0  0  0
   43.9104   35.9538   46.1082 H   0  0  0  0  0  0  0  0  0  0  0  0
   46.7667   33.6595   48.0003 H   0  0  0  0  0  0  0  0  0  0  0  0
   46.8467   30.9659   44.6701 H   0  0  0  0  0  0  0  0  0  0  0  0
   48.0686   28.4959   45.2882 H   0  0  0  0  0  0  0  0  0  0  0  0
   49.1655   27.4796   47.4754 H   0  0  0  0  0  0  0  0  0  0  0  0
   47.9031   31.9387   49.3767 H   0  0  0  0  0  0  0  0  0  0  0  0
   45.7903   33.0389   40.7006 H   0  0  0  0  0  0  0  0  0  0  0  0
   41.6472   35.1749   37.3891 H   0  0  0  0  0  0  0  0  0  0  0  0
   40.5771   36.4678   37.7945 H   0  0  0  0  0  0  0  0  0  0  0  0
   38.9991   34.5607   37.6154 H   0  0  0  0  0  0  0  0  0  0  0  0
   40.1408   33.3950   38.2138 H   0  0  0  0  0  0  0  0  0  0  0  0
   38.2930   35.1113   39.7660 H   0  0  0  0  0  0  0  0  0  0  0  0
   39.3675   33.8980   40.4425 H   0  0  0  0  0  0  0  0  0  0  0  0
   40.4412   35.8918   41.3021 H   0  0  0  0  0  0  0  0  0  0  0  0
   39.9289   36.9153   40.0152 H   0  0  0  0  0  0  0  0  0  0  0  0
  1  2  2  0
  1  6  1  0
  2  3  1  0
  3  4  2  0
  3  8  1  0
  5  4  1  0
  6  5  2  0
  7 15  2  0
  8  7  1  0
  9  8  2  0
  9 10  1  0
 10 14  2  0
 11 10  1  0
 11 12  1  0
 12 13  2  0
 14 13  1  0
 14 15  1  0
 16  1  1  0
 17 16  1  0
 18 17  2  0
 19 20  1  0
 19 18  1  0
 20 21  2  0
 21 17  1  0
 22 20  1  0
 22 26  1  0
 23 24  1  0
 23 22  1  0
 24 25  1  0
 25 26  1  0
  2 27  1  0
  5 28  1  0
  7 29  1  0
  9 30  1  0
 11 31  1  0
 12 32  1  0
 15 33  1  0
 18 34  1  0
 23 35  1  0
 23 36  1  0
 24 37  1  0
 24 38  1  0
 25 39  1  0
 25 40  1  0
 26 41  1  0
 26 42  1  0
M  ISO  8  27  14  28  14  29  14  30  14  31   9  32  14  33  14  34  14
M  ISO  8  35  13  36  13  37  13  38  13  39  13  40  13  41  13  42  13
M  END
>  <minimizedAffinity>  (1) 
-7.07843733

>  <minimizedRMSD>  (1) 
0.182396173

$$$$
