
     RDKit          3D

 13 13  0  0  0  0  0  0  0  0999 V2000
   44.8250   35.1950   44.2580 C   0  0  0  0  0  0  0  0  0  0  0  0
   45.1820   34.2310   43.2910 C   0  0  0  0  0  0  0  0  0  0  0  0
   45.6930   33.0120   43.7130 C   0  0  0  0  0  0  0  0  0  0  0  0
   45.8270   32.8070   45.0580 N   0  0  0  0  0  0  0  0  0  0  0  0
   45.4720   33.7580   45.9530 C   0  0  0  0  0  0  0  0  0  0  0  0
   44.9790   34.9380   45.5720 N   0  0  0  0  0  0  0  0  0  0  0  0
   44.3070   36.4220   43.7250 N   0  0  0  0  0  0  0  0  0  0  0  0
   44.9820   34.5660   41.5450 S   0  0  0  0  0  0  0  0  0  0  0  0
   45.9810   32.2357   42.9888 H   0  0  0  0  0  0  0  0  0  0  0  0
   45.5935   33.5521   47.0267 H   0  0  0  0  0  0  0  0  0  0  0  0
   44.2188   36.5443   42.7061 H   0  0  0  0  0  0  0  0  0  0  0  0
   44.0233   37.1807   44.3612 H   0  0  0  0  0  0  0  0  0  0  0  0
   44.2848   35.7339   41.3810 H   0  0  0  0  0  0  0  0  0  0  0  0
  1  6  2  0
  2  3  2  0
  2  1  1  0
  3  4  1  0
  4  5  2  0
  6  5  1  0
  7  1  1  0
  8  2  1  0
  3  9  1  0
  5 10  1  0
  7 11  1  0
  7 12  1  0
  8 13  1  0
M  ISO  3   9  14  10  14  13  11
M  END
>  <minimizedAffinity>  (1) 
-2.9028399

>  <minimizedRMSD>  (1) 
0.93429935

$$$$
