
     RDKit          3D

 33 34  0  0  0  0  0  0  0  0999 V2000
   46.5980   33.8240   40.8140 C   0  0  0  0  0  0  0  0  0  0  0  0
   47.0200   33.7460   39.4040 C   0  0  0  0  0  0  0  0  0  0  0  0
   46.2130   32.9830   38.5570 C   0  0  0  0  0  0  0  0  0  0  0  0
   46.5580   32.8760   37.2290 C   0  0  0  0  0  0  0  0  0  0  0  0
   47.6940   33.5240   36.7660 N   0  0  0  0  0  0  0  0  0  0  0  0
   48.4350   34.2440   37.6200 C   0  0  0  0  0  0  0  0  0  0  0  0
   48.1260   34.3670   38.9160 N   0  0  0  0  0  0  0  0  0  0  0  0
   44.7580   32.1620   39.1840 S   0  0  0  0  0  0  0  0  0  0  0  0
   47.4740   34.7300   41.6410 C   0  0  0  0  0  0  0  0  0  0  0  0
   46.7900   35.0580   42.9460 C   0  0  0  0  0  0  0  0  0  0  0  0
   46.7620   33.8790   43.8840 C   0  0  0  0  0  0  0  0  0  0  0  0
   45.4670   33.7730   44.6400 C   0  0  0  0  0  0  0  0  0  0  0  0
   44.8540   35.1050   44.9940 C   0  0  0  0  0  0  0  0  0  0  0  0
   44.8050   36.0830   43.8680 C   0  0  0  0  0  0  0  0  0  0  0  0
   45.3550   35.4180   42.6250 C   0  0  0  0  0  0  0  0  0  0  0  0
   46.6317   32.8132   41.2465 H   0  0  0  0  0  0  0  0  0  0  0  0
   45.5814   34.2437   40.8308 H   0  0  0  0  0  0  0  0  0  0  0  0
   45.9386   32.2820   36.5408 H   0  0  0  0  0  0  0  0  0  0  0  0
   49.3327   34.7539   37.2403 H   0  0  0  0  0  0  0  0  0  0  0  0
   44.7809   32.1749   40.5537 H   0  0  0  0  0  0  0  0  0  0  0  0
   48.4291   34.2247   41.8471 H   0  0  0  0  0  0  0  0  0  0  0  0
   47.6574   35.6613   41.0851 H   0  0  0  0  0  0  0  0  0  0  0  0
   47.3410   35.8758   43.4334 H   0  0  0  0  0  0  0  0  0  0  0  0
   46.9043   32.9590   43.2980 H   0  0  0  0  0  0  0  0  0  0  0  0
   47.5672   34.0194   44.6201 H   0  0  0  0  0  0  0  0  0  0  0  0
   44.7492   33.2153   44.0205 H   0  0  0  0  0  0  0  0  0  0  0  0
   45.6923   33.2635   45.5885 H   0  0  0  0  0  0  0  0  0  0  0  0
   43.8251   34.9283   45.3405 H   0  0  0  0  0  0  0  0  0  0  0  0
   45.4980   35.5500   45.7668 H   0  0  0  0  0  0  0  0  0  0  0  0
   43.7645   36.3936   43.6923 H   0  0  0  0  0  0  0  0  0  0  0  0
   45.4055   36.9707   44.1156 H   0  0  0  0  0  0  0  0  0  0  0  0
   45.3163   36.1110   41.7716 H   0  0  0  0  0  0  0  0  0  0  0  0
   44.7681   34.5293   42.3497 H   0  0  0  0  0  0  0  0  0  0  0  0
  1  9  1  0
  2  1  1  0
  3  8  1  0
  3  2  2  0
  4  3  1  0
  5  4  2  0
  5  6  1  0
  6  7  2  0
  7  2  1  0
  9 10  1  0
 10 11  1  0
 11 12  1  0
 12 13  1  0
 14 13  1  0
 15 10  1  0
 15 14  1  0
  1 16  1  0
  1 17  1  0
  4 18  1  0
  6 19  1  0
  8 20  1  0
  9 21  1  0
  9 22  1  0
 10 23  1  0
 11 24  1  0
 11 25  1  0
 12 26  1  0
 12 27  1  0
 13 28  1  0
 13 29  1  0
 14 30  1  0
 14 31  1  0
 15 32  1  0
 15 33  1  0
M  ISO  8  16   8  17   8  18  14  19  14  20  11  21   8  22   8  23  13
M  ISO  8  24  13  25  13  26  13  27  13  28  13  29  13  30  13  31  13
M  ISO  2  32  13  33  13
M  END
>  <minimizedAffinity>  (1) 
-4.28270435

>  <minimizedRMSD>  (1) 
6.527174

$$$$
