
     RDKit          3D

 31 32  0  0  0  0  0  0  0  0999 V2000
   47.7600   34.8850   41.5940 C   0  0  0  0  0  0  0  0  0  0  0  0
   46.7220   34.9120   42.6620 C   0  0  0  0  0  0  0  0  0  0  0  0
   46.7570   33.8500   43.5820 C   0  0  0  0  0  0  0  0  0  0  0  0
   45.8090   33.8490   44.5780 C   0  0  0  0  0  0  0  0  0  0  0  0
   44.8780   34.8470   44.6590 N   0  0  0  0  0  0  0  0  0  0  0  0
   44.8840   35.8480   43.7530 C   0  0  0  0  0  0  0  0  0  0  0  0
   45.7810   35.8840   42.7770 N   0  0  0  0  0  0  0  0  0  0  0  0
   47.9810   32.5690   43.4480 S   0  0  0  0  0  0  0  0  0  0  0  0
   47.2660   34.2550   40.3310 C   0  0  0  0  0  0  0  0  0  0  0  0
   48.2960   33.7060   39.4910 N   0  0  0  0  0  0  0  0  0  0  0  0
   48.4000   32.2970   39.4550 C   0  0  0  0  0  0  0  0  0  0  0  0
   47.9940   31.6020   38.2140 C   0  0  0  0  0  0  0  0  0  0  0  0
   48.1190   32.3250   36.9930 N   0  0  0  0  0  0  0  0  0  0  0  0
   48.8360   33.5710   37.0890 C   0  0  0  0  0  0  0  0  0  0  0  0
   48.1900   34.3600   38.2050 C   0  0  0  0  0  0  0  0  0  0  0  0
   48.0685   35.9181   41.3757 H   0  0  0  0  0  0  0  0  0  0  0  0
   48.6022   34.2805   41.9618 H   0  0  0  0  0  0  0  0  0  0  0  0
   45.7995   33.0356   45.3184 H   0  0  0  0  0  0  0  0  0  0  0  0
   44.1319   36.6474   43.8257 H   0  0  0  0  0  0  0  0  0  0  0  0
   48.3629   32.1693   44.7015 H   0  0  0  0  0  0  0  0  0  0  0  0
   46.5747   33.4430   40.6007 H   0  0  0  0  0  0  0  0  0  0  0  0
   46.7861   35.0568   39.7507 H   0  0  0  0  0  0  0  0  0  0  0  0
   49.4534   32.0419   39.6431 H   0  0  0  0  0  0  0  0  0  0  0  0
   47.6818   31.9492   40.2121 H   0  0  0  0  0  0  0  0  0  0  0  0
   48.6098   30.6948   38.1260 H   0  0  0  0  0  0  0  0  0  0  0  0
   46.9147   31.4233   38.3289 H   0  0  0  0  0  0  0  0  0  0  0  0
   47.1713   32.5286   36.6447 H   0  0  0  0  0  0  0  0  0  0  0  0
   49.8944   33.3822   37.3218 H   0  0  0  0  0  0  0  0  0  0  0  0
   48.7960   34.1243   36.1391 H   0  0  0  0  0  0  0  0  0  0  0  0
   48.6801   35.3427   38.2695 H   0  0  0  0  0  0  0  0  0  0  0  0
   47.1197   34.4513   37.9682 H   0  0  0  0  0  0  0  0  0  0  0  0
  1  2  1  0
  2  7  1  0
  2  3  2  0
  3  4  1  0
  4  5  2  0
  6  5  1  0
  7  6  2  0
  8  3  1  0
  9  1  1  0
 10  9  1  0
 11 10  1  0
 12 11  1  0
 13 14  1  0
 13 12  1  0
 14 15  1  0
 15 10  1  0
  1 16  1  0
  1 17  1  0
  4 18  1  0
  6 19  1  0
  8 20  1  0
  9 21  1  0
  9 22  1  0
 11 23  1  0
 11 24  1  0
 12 25  1  0
 12 26  1  0
 13 27  1  0
 14 28  1  0
 14 29  1  0
 15 30  1  0
 15 31  1  0
M  ISO  8  16   8  17   8  18  14  19  14  20  11  21   8  22   8  23  13
M  ISO  8  24  13  25  13  26  13  27   5  28  13  29  13  30  13  31  13
M  END
>  <minimizedAffinity>  (1) 
-3.76316452

>  <minimizedRMSD>  (1) 
1.98445272

$$$$
