
     RDKit          3D

 32 33  0  0  0  0  0  0  0  0999 V2000
   47.3730   32.6210   44.1480 C   0  0  0  0  0  0  0  0  0  0  0  0
   46.5600   32.7720   45.3760 C   0  0  0  0  0  0  0  0  0  0  0  0
   46.6420   31.7250   46.2880 C   0  0  0  0  0  0  0  0  0  0  0  0
   45.9050   31.7930   47.4710 C   0  0  0  0  0  0  0  0  0  0  0  0
   45.1250   32.8970   47.6870 N   0  0  0  0  0  0  0  0  0  0  0  0
   45.0820   33.8860   46.7660 C   0  0  0  0  0  0  0  0  0  0  0  0
   45.7700   33.8510   45.6360 N   0  0  0  0  0  0  0  0  0  0  0  0
   47.6730   30.3010   45.9540 S   0  0  0  0  0  0  0  0  0  0  0  0
   47.5390   33.9090   43.3970 C   0  0  0  0  0  0  0  0  0  0  0  0
   47.8060   33.7820   42.0070 N   0  0  0  0  0  0  0  0  0  0  0  0
   46.7240   33.2100   41.2700 C   0  0  0  0  0  0  0  0  0  0  0  0
   47.3480   32.4280   40.1100 C   0  0  0  0  0  0  0  0  0  0  0  0
   48.2370   33.3810   39.3740 C   0  0  0  0  0  0  0  0  0  0  0  0
   48.2140   34.7880   39.9020 C   0  0  0  0  0  0  0  0  0  0  0  0
   48.4960   34.8570   41.3810 C   0  0  0  0  0  0  0  0  0  0  0  0
   48.3687   32.2479   44.4297 H   0  0  0  0  0  0  0  0  0  0  0  0
   46.8452   31.9183   43.4865 H   0  0  0  0  0  0  0  0  0  0  0  0
   45.9497   30.9803   48.2110 H   0  0  0  0  0  0  0  0  0  0  0  0
   44.4454   34.7606   46.9653 H   0  0  0  0  0  0  0  0  0  0  0  0
   48.0775   29.7423   47.1377 H   0  0  0  0  0  0  0  0  0  0  0  0
   46.6112   34.4888   43.5113 H   0  0  0  0  0  0  0  0  0  0  0  0
   48.4256   34.3959   43.8293 H   0  0  0  0  0  0  0  0  0  0  0  0
   46.1421   32.5339   41.9137 H   0  0  0  0  0  0  0  0  0  0  0  0
   46.0408   33.9889   40.9005 H   0  0  0  0  0  0  0  0  0  0  0  0
   47.9365   31.5828   40.4964 H   0  0  0  0  0  0  0  0  0  0  0  0
   46.5714   32.0203   39.4462 H   0  0  0  0  0  0  0  0  0  0  0  0
   47.9195   33.4038   38.3211 H   0  0  0  0  0  0  0  0  0  0  0  0
   49.2658   33.0142   39.5048 H   0  0  0  0  0  0  0  0  0  0  0  0
   48.9763   35.3763   39.3702 H   0  0  0  0  0  0  0  0  0  0  0  0
   47.2033   35.1893   39.7366 H   0  0  0  0  0  0  0  0  0  0  0  0
   49.5771   34.7624   41.5604 H   0  0  0  0  0  0  0  0  0  0  0  0
   48.1588   35.8202   41.7914 H   0  0  0  0  0  0  0  0  0  0  0  0
  1  2  1  0
  2  7  1  0
  2  3  2  0
  3  4  1  0
  4  5  2  0
  6  5  1  0
  7  6  2  0
  8  3  1  0
  9  1  1  0
 10  9  1  0
 11 10  1  0
 12 11  1  0
 13 14  1  0
 13 12  1  0
 14 15  1  0
 15 10  1  0
  1 16  1  0
  1 17  1  0
  4 18  1  0
  6 19  1  0
  8 20  1  0
  9 21  1  0
  9 22  1  0
 11 23  1  0
 11 24  1  0
 12 25  1  0
 12 26  1  0
 13 27  1  0
 13 28  1  0
 14 29  1  0
 14 30  1  0
 15 31  1  0
 15 32  1  0
M  ISO  8  16   8  17   8  18  14  19  14  20  11  21   8  22   8  23  13
M  ISO  8  24  13  25  13  26  13  27  13  28  13  29  13  30  13  31  13
M  ISO  1  32  13
M  END
>  <minimizedAffinity>  (1) 
-3.44122124

>  <minimizedRMSD>  (1) 
4.26600742

$$$$
