
     RDKit          3D

 29 30  0  0  0  0  0  0  0  0999 V2000
   46.3270   35.0000   41.9070 C   0  0  0  0  0  0  0  0  0  0  0  0
   44.8580   34.9430   41.6940 C   0  0  0  0  0  0  0  0  0  0  0  0
   43.9720   35.4340   42.7100 C   0  0  0  0  0  0  0  0  0  0  0  0
   42.3090   35.1450   41.9760 S   0  0  0  0  0  0  0  0  0  0  0  0
   43.1010   34.4080   40.4160 C   0  0  0  0  0  0  0  0  0  0  0  0
   44.2160   34.4820   40.6470 N   0  0  0  0  0  0  0  0  0  0  0  0
   42.3530   33.9330   39.3350 O   0  0  0  0  0  0  0  0  0  0  0  0
   40.4080   34.3940   37.5950 O   0  0  0  0  0  0  0  0  0  0  0  0
   41.4890   35.0790   38.4210 P   0  0  0  0  0  0  0  0  0  0  0  0
   40.7630   36.1640   39.4970 O   0  0  0  0  0  0  0  0  0  0  0  0
   42.5580   35.9430   37.4240 O   0  0  0  0  0  0  0  0  0  0  0  0
   47.1280   34.3350   40.8300 C   0  0  0  0  0  0  0  0  0  0  0  0
   48.4680   33.9170   41.2870 C   0  0  0  0  0  0  0  0  0  0  0  0
   48.9320   32.7020   40.7870 C   0  0  0  0  0  0  0  0  0  0  0  0
   50.1830   32.2220   41.1560 C   0  0  0  0  0  0  0  0  0  0  0  0
   50.9210   32.9890   42.0200 N   0  0  0  0  0  0  0  0  0  0  0  0
   50.4330   34.1650   42.4840 C   0  0  0  0  0  0  0  0  0  0  0  0
   49.2400   34.6050   42.1200 N   0  0  0  0  0  0  0  0  0  0  0  0
   47.9210   31.7290   39.6520 S   0  0  0  0  0  0  0  0  0  0  0  0
   46.6277   36.0568   41.9584 H   0  0  0  0  0  0  0  0  0  0  0  0
   46.5336   34.4534   42.8389 H   0  0  0  0  0  0  0  0  0  0  0  0
   44.2241   35.8742   43.6860 H   0  0  0  0  0  0  0  0  0  0  0  0
   40.9515   35.8823   40.4271 H   0  0  0  0  0  0  0  0  0  0  0  0
   43.1920   36.4554   37.9858 H   0  0  0  0  0  0  0  0  0  0  0  0
   47.2462   35.0402   39.9941 H   0  0  0  0  0  0  0  0  0  0  0  0
   46.5846   33.4281   40.5262 H   0  0  0  0  0  0  0  0  0  0  0  0
   50.5655   31.2654   40.7704 H   0  0  0  0  0  0  0  0  0  0  0  0
   51.0409   34.7653   43.1769 H   0  0  0  0  0  0  0  0  0  0  0  0
   47.0799   30.9195   40.3690 H   0  0  0  0  0  0  0  0  0  0  0  0
  2  1  1  0
  2  3  2  0
  4  3  1  0
  5  6  2  0
  5  4  1  0
  6  2  1  0
  7  5  1  0
  8  9  2  0
  9  7  1  0
  9 10  1  0
 11  9  1  0
 12 13  1  0
 12  1  1  0
 13 18  2  0
 14 15  2  0
 14 13  1  0
 15 16  1  0
 16 17  2  0
 18 17  1  0
 19 14  1  0
  1 20  1  0
  1 21  1  0
  3 22  1  0
 10 23  1  0
 11 24  1  0
 12 25  1  0
 12 26  1  0
 15 27  1  0
 17 28  1  0
 19 29  1  0
M  ISO  8  20   8  21   8  22  14  23   3  24   3  25   8  26   8  27  14
M  ISO  2  28  14  29  11
M  END
>  <minimizedAffinity>  (1) 
-4.49903965

>  <minimizedRMSD>  (1) 
1.11693442

$$$$
