
     RDKit          3D

 35 37  0  0  1  0  0  0  0  0999 V2000
   48.2190   34.5680   41.2490 C   0  0  1  0  0  0  0  0  0  0  0  0
   48.8620   35.9290   41.7240 C   0  0  0  0  0  0  0  0  0  0  0  0
   49.1270   34.6480   42.3860 C   0  0  2  0  0  0  0  0  0  0  0  0
   46.7450   34.5550   41.4510 C   0  0  0  0  0  0  0  0  0  0  0  0
   46.0430   34.3200   40.4730 O   0  0  0  0  0  0  0  0  0  0  0  0
   45.4070   35.9240   42.9810 C   0  0  0  0  0  0  0  0  0  0  0  0
   46.0990   34.7950   42.7020 C   0  0  0  0  0  0  0  0  0  0  0  0
   46.1710   33.8030   43.7210 C   0  0  0  0  0  0  0  0  0  0  0  0
   45.5650   34.0030   44.9140 N   0  0  0  0  0  0  0  0  0  0  0  0
   44.8780   35.1590   45.1460 C   0  0  0  0  0  0  0  0  0  0  0  0
   44.8080   36.0830   44.2040 N   0  0  0  0  0  0  0  0  0  0  0  0
   50.4430   34.2170   42.2700 O   0  0  0  0  0  0  0  0  0  0  0  0
   49.1080   32.0790   42.8280 O   0  0  0  0  0  0  0  0  0  0  0  0
   50.3870   32.5200   42.1430 P   0  0  2  0  0  0  0  0  0  0  0  0
   51.7280   31.7660   42.7780 O   0  0  0  0  0  0  0  0  0  0  0  0
   50.1630   32.1350   40.4820 O   0  0  0  0  0  0  0  0  0  0  0  0
   50.9580   31.2570   39.7750 C   0  0  0  0  0  0  0  0  0  0  0  0
   52.2270   31.4500   39.2680 C   0  0  0  0  0  0  0  0  0  0  0  0
   52.8660   30.4400   38.5800 C   0  0  0  0  0  0  0  0  0  0  0  0
   52.2920   29.2040   38.3590 C   0  0  0  0  0  0  0  0  0  0  0  0
   51.0230   29.0350   38.8740 C   0  0  0  0  0  0  0  0  0  0  0  0
   50.3270   30.0220   39.5810 C   0  0  0  0  0  0  0  0  0  0  0  0
   48.1902   33.9102   40.3678 H   0  0  0  0  0  0  0  0  0  0  0  0
   49.6420   36.4178   41.1218 H   0  0  0  0  0  0  0  0  0  0  0  0
   48.4921   36.9193   42.0282 H   0  0  0  0  0  0  0  0  0  0  0  0
   49.0159   34.2532   43.4067 H   0  0  0  0  0  0  0  0  0  0  0  0
   45.3248   36.7174   42.2235 H   0  0  0  0  0  0  0  0  0  0  0  0
   46.7223   32.8690   43.5372 H   0  0  0  0  0  0  0  0  0  0  0  0
   44.3835   35.3213   46.1151 H   0  0  0  0  0  0  0  0  0  0  0  0
   51.6835   31.7910   43.7667 H   0  0  0  0  0  0  0  0  0  0  0  0
   52.7323   32.4162   39.4137 H   0  0  0  0  0  0  0  0  0  0  0  0
   53.8774   30.6274   38.1902 H   0  0  0  0  0  0  0  0  0  0  0  0
   52.8121   28.4062   37.8085 H   0  0  0  0  0  0  0  0  0  0  0  0
   50.5281   28.0649   38.7193 H   0  0  0  0  0  0  0  0  0  0  0  0
   49.3162   29.8337   39.9720 H   0  0  0  0  0  0  0  0  0  0  0  0
  1  4  1  0
  1  2  1  0
  1  3  1  0
  2  3  1  0
  4  7  1  0
  5  4  2  0
  6 11  2  0
  7  6  1  0
  7  8  2  0
  8  9  1  0
  9 10  2  0
 11 10  1  0
 12  3  1  0
 14 12  1  0
 14 15  1  0
 14 13  2  0
 16 14  1  0
 17 16  1  0
 18 17  2  0
 19 18  1  0
 20 19  2  0
 20 21  1  0
 21 22  2  0
 22 17  1  0
  1 23  1  6
  2 24  1  0
  2 25  1  0
  3 26  1  1
  6 27  1  0
  8 28  1  0
 10 29  1  0
 15 30  1  0
 18 31  1  0
 19 32  1  0
 20 33  1  0
 21 34  1  0
 22 35  1  0
M  ISO  8  23  13  24  13  25  13  26  13  27  14  28  14  29  14  30   3
M  ISO  5  31  14  32  14  33  14  34  14  35  14
M  END
>  <minimizedAffinity>  (1) 
-4.90607691

>  <minimizedRMSD>  (1) 
1.12511563

$$$$
