
     RDKit          3D

 32 33  0  0  0  0  0  0  0  0999 V2000
   46.3430   35.0130   41.9110 C   0  0  0  0  0  0  0  0  0  0  0  0
   44.8740   34.9490   41.6980 C   0  0  0  0  0  0  0  0  0  0  0  0
   43.9870   35.4330   42.7030 C   0  0  0  0  0  0  0  0  0  0  0  0
   42.3310   35.1420   41.9830 S   0  0  0  0  0  0  0  0  0  0  0  0
   43.1230   34.4000   40.4120 C   0  0  0  0  0  0  0  0  0  0  0  0
   44.2280   34.4890   40.6650 N   0  0  0  0  0  0  0  0  0  0  0  0
   42.3660   33.9220   39.3350 O   0  0  0  0  0  0  0  0  0  0  0  0
   40.4240   34.3930   37.6040 O   0  0  0  0  0  0  0  0  0  0  0  0
   41.5010   35.0680   38.4250 P   0  0  0  0  0  0  0  0  0  0  0  0
   40.7760   36.1470   39.5080 O   0  0  0  0  0  0  0  0  0  0  0  0
   42.5630   35.9440   37.4290 O   0  0  0  0  0  0  0  0  0  0  0  0
   47.1450   34.3460   40.8370 C   0  0  0  0  0  0  0  0  0  0  0  0
   48.4850   33.9260   41.2940 C   0  0  0  0  0  0  0  0  0  0  0  0
   48.9460   32.7170   40.7840 C   0  0  0  0  0  0  0  0  0  0  0  0
   50.1970   32.2280   41.1490 C   0  0  0  0  0  0  0  0  0  0  0  0
   50.9350   32.9950   42.0290 N   0  0  0  0  0  0  0  0  0  0  0  0
   50.4420   34.1650   42.4970 C   0  0  0  0  0  0  0  0  0  0  0  0
   49.2520   34.5970   42.1280 N   0  0  0  0  0  0  0  0  0  0  0  0
   47.9330   31.7580   39.6380 S   0  0  0  0  0  0  0  0  0  0  0  0
   48.4730   32.1840   37.9700 C   0  0  0  0  0  0  0  0  0  0  0  0
   46.6398   36.0712   41.9573 H   0  0  0  0  0  0  0  0  0  0  0  0
   46.5523   34.4724   42.8458 H   0  0  0  0  0  0  0  0  0  0  0  0
   44.2382   35.8756   43.6782 H   0  0  0  0  0  0  0  0  0  0  0  0
   40.9678   35.8615   40.4363 H   0  0  0  0  0  0  0  0  0  0  0  0
   43.1913   36.4623   37.9918 H   0  0  0  0  0  0  0  0  0  0  0  0
   47.2647   35.0502   40.0005 H   0  0  0  0  0  0  0  0  0  0  0  0
   46.6009   33.4388   40.5355 H   0  0  0  0  0  0  0  0  0  0  0  0
   50.5800   31.2751   40.7549 H   0  0  0  0  0  0  0  0  0  0  0  0
   51.0431   34.7650   43.1960 H   0  0  0  0  0  0  0  0  0  0  0  0
   49.3355   32.8644   38.0264 H   0  0  0  0  0  0  0  0  0  0  0  0
   48.7626   31.2685   37.4333 H   0  0  0  0  0  0  0  0  0  0  0  0
   47.6501   32.6788   37.4333 H   0  0  0  0  0  0  0  0  0  0  0  0
  2  1  1  0
  2  3  2  0
  4  3  1  0
  5  6  2  0
  5  4  1  0
  6  2  1  0
  7  5  1  0
  8  9  2  0
  9  7  1  0
  9 10  1  0
 11  9  1  0
 12 13  1  0
 12  1  1  0
 13 18  2  0
 14 15  2  0
 14 13  1  0
 15 16  1  0
 16 17  2  0
 18 17  1  0
 19 14  1  0
 20 19  1  0
  1 21  1  0
  1 22  1  0
  3 23  1  0
 10 24  1  0
 11 25  1  0
 12 26  1  0
 12 27  1  0
 15 28  1  0
 17 29  1  0
 20 30  1  0
 20 31  1  0
 20 32  1  0
M  ISO  8  21   8  22   8  23  14  24   3  25   3  26   8  27   8  28  14
M  ISO  4  29  14  30   8  31   8  32   8
M  END
>  <minimizedAffinity>  (1) 
-4.41117144

>  <minimizedRMSD>  (1) 
0.0432614051

$$$$
