
     RDKit          3D

 36 38  0  0  0  0  0  0  0  0999 V2000
   47.4440   34.5820   40.8490 C   0  0  0  0  0  0  0  0  0  0  0  0
   48.6950   33.9050   41.2260 C   0  0  0  0  0  0  0  0  0  0  0  0
   48.9480   32.6830   40.6190 C   0  0  0  0  0  0  0  0  0  0  0  0
   50.0920   31.9530   40.8940 C   0  0  0  0  0  0  0  0  0  0  0  0
   50.9660   32.5090   41.8050 N   0  0  0  0  0  0  0  0  0  0  0  0
   50.6920   33.7020   42.3800 C   0  0  0  0  0  0  0  0  0  0  0  0
   49.5800   34.3720   42.0890 N   0  0  0  0  0  0  0  0  0  0  0  0
   47.7730   31.9960   39.4300 S   0  0  0  0  0  0  0  0  0  0  0  0
   46.3340   31.4190   40.1920 C   0  0  0  0  0  0  0  0  0  0  0  0
   45.9840   31.2090   41.4840 C   0  0  0  0  0  0  0  0  0  0  0  0
   44.7420   30.7320   41.7940 C   0  0  0  0  0  0  0  0  0  0  0  0
   43.8380   30.4680   40.7270 C   0  0  0  0  0  0  0  0  0  0  0  0
   44.8410   30.9330   39.1930 S   0  0  0  0  0  0  0  0  0  0  0  0
   46.6080   34.9750   42.0380 C   0  0  0  0  0  0  0  0  0  0  0  0
   45.1510   34.9390   41.8000 C   0  0  0  0  0  0  0  0  0  0  0  0
   44.2670   35.5090   42.7560 C   0  0  0  0  0  0  0  0  0  0  0  0
   42.6080   35.2180   42.0160 S   0  0  0  0  0  0  0  0  0  0  0  0
   43.4060   34.3590   40.5140 C   0  0  0  0  0  0  0  0  0  0  0  0
   44.5210   34.4270   40.7720 N   0  0  0  0  0  0  0  0  0  0  0  0
   42.6670   33.8400   39.4610 O   0  0  0  0  0  0  0  0  0  0  0  0
   40.6740   34.1690   37.7460 O   0  0  0  0  0  0  0  0  0  0  0  0
   41.7350   34.9220   38.5370 P   0  0  0  0  0  0  0  0  0  0  0  0
   40.9600   35.9700   39.6210 O   0  0  0  0  0  0  0  0  0  0  0  0
   42.7470   35.8190   37.5250 O   0  0  0  0  0  0  0  0  0  0  0  0
   47.6940   35.4899   40.2805 H   0  0  0  0  0  0  0  0  0  0  0  0
   46.8531   33.8732   40.2503 H   0  0  0  0  0  0  0  0  0  0  0  0
   50.2926   30.9842   40.4131 H   0  0  0  0  0  0  0  0  0  0  0  0
   51.4033   34.1273   43.1033 H   0  0  0  0  0  0  0  0  0  0  0  0
   46.7038   31.4238   42.2876 H   0  0  0  0  0  0  0  0  0  0  0  0
   44.4487   30.5568   42.8396 H   0  0  0  0  0  0  0  0  0  0  0  0
   42.8077   30.0867   40.7814 H   0  0  0  0  0  0  0  0  0  0  0  0
   46.8386   34.2853   42.8634 H   0  0  0  0  0  0  0  0  0  0  0  0
   46.8621   36.0203   42.2677 H   0  0  0  0  0  0  0  0  0  0  0  0
   44.5145   36.0037   43.7068 H   0  0  0  0  0  0  0  0  0  0  0  0
   41.1640   35.6941   40.5496 H   0  0  0  0  0  0  0  0  0  0  0  0
   43.3632   36.3652   38.0746 H   0  0  0  0  0  0  0  0  0  0  0  0
  1  2  1  0
  1 14  1  0
  2  7  2  0
  3  4  2  0
  3  2  1  0
  4  5  1  0
  5  6  2  0
  7  6  1  0
  8  9  1  0
  8  3  1  0
  9 10  2  0
 10 11  1  0
 12 11  2  0
 13  9  1  0
 13 12  1  0
 15 14  1  0
 15 16  2  0
 17 16  1  0
 18 19  2  0
 18 17  1  0
 19 15  1  0
 20 18  1  0
 21 22  2  0
 22 20  1  0
 22 23  1  0
 24 22  1  0
  1 25  1  0
  1 26  1  0
  4 27  1  0
  6 28  1  0
 10 29  1  0
 11 30  1  0
 12 31  1  0
 14 32  1  0
 14 33  1  0
 16 34  1  0
 23 35  1  0
 24 36  1  0
M  ISO  8  25   8  26   8  27  14  28  14  29  14  30  14  31  14  32   8
M  ISO  4  33   8  34  14  35   3  36   3
M  END
>  <minimizedAffinity>  (1) 
-4.39770412

>  <minimizedRMSD>  (1) 
0.790105879

$$$$
