
     RDKit          3D

 36 37  0  0  0  0  0  0  0  0999 V2000
   47.7570   34.8840   41.1730 C   0  0  0  0  0  0  0  0  0  0  0  0
   48.9360   34.0210   41.4000 C   0  0  0  0  0  0  0  0  0  0  0  0
   49.0530   32.8970   40.6050 C   0  0  0  0  0  0  0  0  0  0  0  0
   50.1110   32.0220   40.7300 C   0  0  0  0  0  0  0  0  0  0  0  0
   51.0460   32.3370   41.6970 N   0  0  0  0  0  0  0  0  0  0  0  0
   50.9000   33.4560   42.4640 C   0  0  0  0  0  0  0  0  0  0  0  0
   49.8640   34.2640   42.3030 N   0  0  0  0  0  0  0  0  0  0  0  0
   47.7960   32.5350   39.3560 S   0  0  0  0  0  0  0  0  0  0  0  0
   48.4610   32.8130   37.7090 C   0  0  0  0  0  0  0  0  0  0  0  0
   48.5080   34.3010   37.4470 C   0  0  0  0  0  0  0  0  0  0  0  0
   47.2840   34.6300   36.8230 O   0  0  0  0  0  0  0  0  0  0  0  0
   46.8290   34.9390   42.3430 C   0  0  0  0  0  0  0  0  0  0  0  0
   45.3870   34.8370   41.9700 C   0  0  0  0  0  0  0  0  0  0  0  0
   44.4640   35.8100   42.4140 C   0  0  0  0  0  0  0  0  0  0  0  0
   42.8760   35.2590   41.7150 S   0  0  0  0  0  0  0  0  0  0  0  0
   43.7270   33.7510   40.9050 C   0  0  0  0  0  0  0  0  0  0  0  0
   44.8070   33.9130   41.2400 N   0  0  0  0  0  0  0  0  0  0  0  0
   43.0490   32.8070   40.1400 O   0  0  0  0  0  0  0  0  0  0  0  0
   42.0270   32.2150   37.7630 O   0  0  0  0  0  0  0  0  0  0  0  0
   42.3100   33.3780   38.7110 P   0  0  0  0  0  0  0  0  0  0  0  0
   40.8350   34.1050   39.1240 O   0  0  0  0  0  0  0  0  0  0  0  0
   43.2830   34.5500   37.9750 O   0  0  0  0  0  0  0  0  0  0  0  0
   48.1076   35.9041   40.9576 H   0  0  0  0  0  0  0  0  0  0  0  0
   47.1948   34.4519   40.3320 H   0  0  0  0  0  0  0  0  0  0  0  0
   50.2050   31.1268   40.0977 H   0  0  0  0  0  0  0  0  0  0  0  0
   51.6554   33.6904   43.2285 H   0  0  0  0  0  0  0  0  0  0  0  0
   49.4761   32.3941   37.6447 H   0  0  0  0  0  0  0  0  0  0  0  0
   47.8221   32.3218   36.9603 H   0  0  0  0  0  0  0  0  0  0  0  0
   48.6137   34.8517   38.3933 H   0  0  0  0  0  0  0  0  0  0  0  0
   49.3660   34.5696   36.8132 H   0  0  0  0  0  0  0  0  0  0  0  0
   46.5999   34.8139   37.5146 H   0  0  0  0  0  0  0  0  0  0  0  0
   47.0727   34.1062   43.0191 H   0  0  0  0  0  0  0  0  0  0  0  0
   46.9694   35.9206   42.8191 H   0  0  0  0  0  0  0  0  0  0  0  0
   44.6595   36.6950   43.0373 H   0  0  0  0  0  0  0  0  0  0  0  0
   40.7519   34.1460   40.1097 H   0  0  0  0  0  0  0  0  0  0  0  0
   43.7322   35.0910   38.6719 H   0  0  0  0  0  0  0  0  0  0  0  0
  1  2  1  0
  1 12  1  0
  2  7  2  0
  3  4  2  0
  3  2  1  0
  4  5  1  0
  5  6  2  0
  7  6  1  0
  8  3  1  0
  9  8  1  0
 10  9  1  0
 11 10  1  0
 13 12  1  0
 13 14  2  0
 15 14  1  0
 16 17  2  0
 16 15  1  0
 17 13  1  0
 18 16  1  0
 19 20  2  0
 20 21  1  0
 20 18  1  0
 22 20  1  0
  1 23  1  0
  1 24  1  0
  4 25  1  0
  6 26  1  0
  9 27  1  0
  9 28  1  0
 10 29  1  0
 10 30  1  0
 11 31  1  0
 12 32  1  0
 12 33  1  0
 14 34  1  0
 21 35  1  0
 22 36  1  0
M  ISO  8  23   8  24   8  25  14  26  14  27   8  28   8  29   8  30   8
M  ISO  6  31   3  32   8  33   8  34  14  35   3  36   3
M  END
>  <minimizedAffinity>  (1) 
-4.75772381

>  <minimizedRMSD>  (1) 
0.981173575

$$$$
