
     RDKit          3D

 35 37  0  0  1  0  0  0  0  0999 V2000
   46.8510   34.9180   42.1420 C   0  0  2  0  0  0  0  0  0  0  0  0
   46.3090   33.9820   41.1080 C   0  0  0  0  0  0  0  0  0  0  0  0
   47.5030   33.9260   40.1600 C   0  0  0  0  0  0  0  0  0  0  0  0
   48.7220   34.0950   41.0190 C   0  0  1  0  0  0  0  0  0  0  0  0
   48.2000   34.2490   42.4400 C   0  0  0  0  0  0  0  0  0  0  0  0
   44.4120   36.0840   44.7780 C   0  0  0  0  0  0  0  0  0  0  0  0
   45.1280   36.0830   43.5820 C   0  0  0  0  0  0  0  0  0  0  0  0
   46.0340   35.0390   43.3700 C   0  0  0  0  0  0  0  0  0  0  0  0
   46.1750   34.0690   44.3450 N   0  0  0  0  0  0  0  0  0  0  0  0
   45.4590   34.1130   45.4860 C   0  0  0  0  0  0  0  0  0  0  0  0
   44.5830   35.1080   45.7090 N   0  0  0  0  0  0  0  0  0  0  0  0
   49.6500   32.9960   40.9350 N   0  0  0  0  0  0  0  0  0  0  0  0
   50.5400   32.8720   42.0380 C   0  0  0  0  0  0  0  0  0  0  0  0
   50.9930   31.4930   42.3700 C   0  0  0  0  0  0  0  0  0  0  0  0
   49.7580   30.7200   42.5800 N   0  0  0  0  0  0  0  0  0  0  0  0
   49.1770   30.5770   41.2760 C   0  0  0  0  0  0  0  0  0  0  0  0
   49.0340   31.8060   40.4750 C   0  0  0  0  0  0  0  0  0  0  0  0
   46.8887   35.9589   41.7883 H   0  0  0  0  0  0  0  0  0  0  0  0
   46.0761   32.9940   41.5319 H   0  0  0  0  0  0  0  0  0  0  0  0
   45.3614   34.2961   40.6460 H   0  0  0  0  0  0  0  0  0  0  0  0
   47.4416   34.7374   39.4198 H   0  0  0  0  0  0  0  0  0  0  0  0
   47.5310   32.9778   39.6032 H   0  0  0  0  0  0  0  0  0  0  0  0
   49.2982   34.9675   40.6773 H   0  0  0  0  0  0  0  0  0  0  0  0
   48.8517   34.8925   43.0493 H   0  0  0  0  0  0  0  0  0  0  0  0
   48.1426   33.3172   43.0217 H   0  0  0  0  0  0  0  0  0  0  0  0
   43.6923   36.8927   44.9730 H   0  0  0  0  0  0  0  0  0  0  0  0
   44.9855   36.8749   42.8319 H   0  0  0  0  0  0  0  0  0  0  0  0
   45.5929   33.3262   46.2430 H   0  0  0  0  0  0  0  0  0  0  0  0
   51.4337   33.4738   41.8165 H   0  0  0  0  0  0  0  0  0  0  0  0
   49.9688   33.2114   42.9146 H   0  0  0  0  0  0  0  0  0  0  0  0
   51.5770   31.0687   41.5400 H   0  0  0  0  0  0  0  0  0  0  0  0
   51.6435   31.4768   43.2569 H   0  0  0  0  0  0  0  0  0  0  0  0
   49.3899   30.3592   43.4718 H   0  0  0  0  0  0  0  0  0  0  0  0
   48.8540   29.5978   40.8927 H   0  0  0  0  0  0  0  0  0  0  0  0
   48.4594   31.7994   39.5370 H   0  0  0  0  0  0  0  0  0  0  0  0
  1  5  1  0
  1  8  1  0
  2  1  1  0
  3  4  1  0
  3  2  1  0
  4  5  1  0
  6 11  2  0
  7  6  1  0
  8  7  2  0
  8  9  1  0
  9 10  2  0
 10 11  1  0
 12  4  1  0
 12 13  1  0
 13 14  1  0
 14 15  1  0
 16 15  1  0
 17 12  1  0
 17 16  2  0
  1 18  1  6
  2 19  1  0
  2 20  1  0
  3 21  1  0
  3 22  1  0
  4 23  1  6
  5 24  1  0
  5 25  1  0
  6 26  1  0
  7 27  1  0
 10 28  1  0
 13 29  1  0
 13 30  1  0
 14 31  1  0
 14 32  1  0
 15 33  1  0
 16 34  1  0
 17 35  1  0
M  ISO  8  18  13  19  13  20  13  21  13  22  13  23  13  24  13  25  13
M  ISO  8  26  14  27  14  28  14  29  13  30  13  31  13  32  13  34  13
M  ISO  1  35  13
M  END
>  <minimizedAffinity>  (1) 
-4.68424606

>  <minimizedRMSD>  (1) 
1.61707234

$$$$
