
     RDKit          3D

 36 39  0  0  1  0  0  0  0  0999 V2000
   46.6220   34.9740   42.0660 C   0  0  2  0  0  0  0  0  0  0  0  0
   46.0580   33.9970   41.0860 C   0  0  0  0  0  0  0  0  0  0  0  0
   47.1680   34.0010   40.0390 C   0  0  0  0  0  0  0  0  0  0  0  0
   48.4410   34.2590   40.7970 C   0  0  1  0  0  0  0  0  0  0  0  0
   48.0300   34.4120   42.2580 C   0  0  0  0  0  0  0  0  0  0  0  0
   50.2540   32.9830   41.7960 C   0  0  0  0  0  0  0  0  0  0  0  0
   49.3860   33.0920   40.7490 C   0  0  0  0  0  0  0  0  0  0  0  0
   49.3530   32.1970   39.6930 C   0  0  0  0  0  0  0  0  0  0  0  0
   50.2690   31.1400   39.7310 C   0  0  0  0  0  0  0  0  0  0  0  0
   50.4970   30.1260   38.8950 N   0  0  0  0  0  0  0  0  0  0  0  0
   51.5050   29.3920   39.4200 C   0  0  0  0  0  0  0  0  0  0  0  0
   51.9030   29.9510   40.5890 N   0  0  0  0  0  0  0  0  0  0  0  0
   51.1420   31.0320   40.7860 C   0  0  0  0  0  0  0  0  0  0  0  0
   51.1650   31.9390   41.8430 C   0  0  0  0  0  0  0  0  0  0  0  0
   44.4060   36.0860   44.9120 C   0  0  0  0  0  0  0  0  0  0  0  0
   45.0270   36.1290   43.6650 C   0  0  0  0  0  0  0  0  0  0  0  0
   45.8920   35.0930   43.3390 C   0  0  0  0  0  0  0  0  0  0  0  0
   46.0830   34.0890   44.2700 N   0  0  0  0  0  0  0  0  0  0  0  0
   45.4640   34.0880   45.4610 C   0  0  0  0  0  0  0  0  0  0  0  0
   44.6290   35.0700   45.7940 N   0  0  0  0  0  0  0  0  0  0  0  0
   46.5690   36.0092   41.6979 H   0  0  0  0  0  0  0  0  0  0  0  0
   45.9229   33.0014   41.5339 H   0  0  0  0  0  0  0  0  0  0  0  0
   45.0585   34.2501   40.7025 H   0  0  0  0  0  0  0  0  0  0  0  0
   46.9944   34.7961   39.2989 H   0  0  0  0  0  0  0  0  0  0  0  0
   47.2094   33.0502   39.4873 H   0  0  0  0  0  0  0  0  0  0  0  0
   48.9439   35.1349   40.3613 H   0  0  0  0  0  0  0  0  0  0  0  0
   48.6826   35.1150   42.7965 H   0  0  0  0  0  0  0  0  0  0  0  0
   48.0895   33.4932   42.8599 H   0  0  0  0  0  0  0  0  0  0  0  0
   50.2309   33.7266   42.6063 H   0  0  0  0  0  0  0  0  0  0  0  0
   48.6401   32.3116   38.8631 H   0  0  0  0  0  0  0  0  0  0  0  0
   49.9985   29.9370   38.0137 H   0  0  0  0  0  0  0  0  0  0  0  0
   51.9339   28.4848   38.9694 H   0  0  0  0  0  0  0  0  0  0  0  0
   51.8739   31.8317   42.6772 H   0  0  0  0  0  0  0  0  0  0  0  0
   43.7159   36.8952   45.1930 H   0  0  0  0  0  0  0  0  0  0  0  0
   44.8384   36.9550   42.9635 H   0  0  0  0  0  0  0  0  0  0  0  0
   45.6486   33.2670   46.1695 H   0  0  0  0  0  0  0  0  0  0  0  0
  1  5  1  0
  1 17  1  0
  2  1  1  0
  3  4  1  0
  3  2  1  0
  4  5  1  0
  6 14  2  0
  7  4  1  0
  7  6  1  0
  8  9  1  0
  8  7  2  0
  9 13  2  0
 10 11  1  0
 10  9  1  0
 11 12  2  0
 12 13  1  0
 13 14  1  0
 15 20  2  0
 16 15  1  0
 17 16  2  0
 17 18  1  0
 18 19  2  0
 19 20  1  0
  1 21  1  6
  2 22  1  0
  2 23  1  0
  3 24  1  0
  3 25  1  0
  4 26  1  6
  5 27  1  0
  5 28  1  0
  6 29  1  0
  8 30  1  0
 10 31  1  0
 11 32  1  0
 14 33  1  0
 15 34  1  0
 16 35  1  0
 19 36  1  0
M  ISO  8  21  13  22  13  23  13  24  13  25  13  26  13  27  13  28  13
M  ISO  8  29  14  30  14  31   9  32  14  33  14  34  14  35  14  36  14
M  END
>  <minimizedAffinity>  (1) 
-5.25336218

>  <minimizedRMSD>  (1) 
2.13456559

$$$$
