
     RDKit          3D

 35 37  0  0  1  0  0  0  0  0999 V2000
   46.5820   34.9410   42.0410 C   0  0  2  0  0  0  0  0  0  0  0  0
   46.1730   33.7730   41.1970 C   0  0  0  0  0  0  0  0  0  0  0  0
   47.2050   33.9320   40.0710 C   0  0  0  0  0  0  0  0  0  0  0  0
   48.4700   34.3810   40.7900 C   0  0  1  0  0  0  0  0  0  0  0  0
   48.0730   34.6290   42.2280 C   0  0  0  0  0  0  0  0  0  0  0  0
   44.4090   36.0740   44.9180 C   0  0  0  0  0  0  0  0  0  0  0  0
   45.0190   36.1030   43.6480 C   0  0  0  0  0  0  0  0  0  0  0  0
   45.8830   35.0360   43.3400 C   0  0  0  0  0  0  0  0  0  0  0  0
   46.0850   34.0370   44.2720 N   0  0  0  0  0  0  0  0  0  0  0  0
   45.4640   34.0780   45.4690 C   0  0  0  0  0  0  0  0  0  0  0  0
   44.6370   35.0810   45.7910 N   0  0  0  0  0  0  0  0  0  0  0  0
   49.4530   33.3960   40.5750 N   0  0  0  0  0  0  0  0  0  0  0  0
   49.0910   32.3000   39.7380 C   0  0  0  0  0  0  0  0  0  0  0  0
   50.2830   31.3730   39.8840 C   0  0  0  0  0  0  0  0  0  0  0  0
   51.0650   31.8780   41.0760 C   0  0  0  0  0  0  0  0  0  0  0  0
   50.0610   32.8280   41.7450 C   0  0  0  0  0  0  0  0  0  0  0  0
   46.3439   35.9107   41.5796 H   0  0  0  0  0  0  0  0  0  0  0  0
   46.2852   32.8173   41.7299 H   0  0  0  0  0  0  0  0  0  0  0  0
   45.1196   33.7585   40.8805 H   0  0  0  0  0  0  0  0  0  0  0  0
   46.8777   34.6910   39.3452 H   0  0  0  0  0  0  0  0  0  0  0  0
   47.3511   33.0050   39.4971 H   0  0  0  0  0  0  0  0  0  0  0  0
   48.9155   35.3172   40.4224 H   0  0  0  0  0  0  0  0  0  0  0  0
   48.6175   35.4811   42.6610 H   0  0  0  0  0  0  0  0  0  0  0  0
   48.2907   33.8011   42.9188 H   0  0  0  0  0  0  0  0  0  0  0  0
   43.7265   36.8887   45.2017 H   0  0  0  0  0  0  0  0  0  0  0  0
   44.8294   36.9180   42.9340 H   0  0  0  0  0  0  0  0  0  0  0  0
   45.6405   33.2711   46.1954 H   0  0  0  0  0  0  0  0  0  0  0  0
   48.1667   31.8185   40.0899 H   0  0  0  0  0  0  0  0  0  0  0  0
   48.8842   32.5905   38.6974 H   0  0  0  0  0  0  0  0  0  0  0  0
   49.9447   30.3411   40.0590 H   0  0  0  0  0  0  0  0  0  0  0  0
   50.8997   31.3657   38.9732 H   0  0  0  0  0  0  0  0  0  0  0  0
   51.3429   31.0534   41.7489 H   0  0  0  0  0  0  0  0  0  0  0  0
   52.0167   32.3598   40.8073 H   0  0  0  0  0  0  0  0  0  0  0  0
   50.5639   33.5911   42.3572 H   0  0  0  0  0  0  0  0  0  0  0  0
   49.3636   32.3505   42.4490 H   0  0  0  0  0  0  0  0  0  0  0  0
  1  5  1  0
  1  8  1  0
  2  1  1  0
  3  4  1  0
  3  2  1  0
  4  5  1  0
  6 11  2  0
  7  6  1  0
  8  7  2  0
  8  9  1  0
  9 10  2  0
 10 11  1  0
 12 13  1  0
 12  4  1  0
 12 16  1  0
 13 14  1  0
 14 15  1  0
 15 16  1  0
  1 17  1  6
  2 18  1  0
  2 19  1  0
  3 20  1  0
  3 21  1  0
  4 22  1  6
  5 23  1  0
  5 24  1  0
  6 25  1  0
  7 26  1  0
 10 27  1  0
 13 28  1  0
 13 29  1  0
 14 30  1  0
 14 31  1  0
 15 32  1  0
 15 33  1  0
 16 34  1  0
 16 35  1  0
M  ISO  8  17  13  18  13  19  13  20  13  21  13  22  13  23  13  24  13
M  ISO  8  25  14  26  14  27  14  28  13  29  13  30  13  31  13  32  13
M  ISO  3  33  13  34  13  35  13
M  END
>  <minimizedAffinity>  (1) 
-4.62018108

>  <minimizedRMSD>  (1) 
1.12826765

$$$$
