
     RDKit          3D

 30 32  0  0  1  0  0  0  0  0999 V2000
   46.8880   34.8860   42.1740 C   0  0  2  0  0  0  0  0  0  0  0  0
   46.3850   33.9190   41.1600 C   0  0  0  0  0  0  0  0  0  0  0  0
   47.5830   33.9190   40.2030 C   0  0  0  0  0  0  0  0  0  0  0  0
   48.7910   34.0830   41.0750 C   0  0  1  0  0  0  0  0  0  0  0  0
   48.2660   34.2900   42.4840 C   0  0  0  0  0  0  0  0  0  0  0  0
   44.4150   36.0750   44.7670 C   0  0  0  0  0  0  0  0  0  0  0  0
   45.1490   36.0710   43.5640 C   0  0  0  0  0  0  0  0  0  0  0  0
   46.0590   35.0090   43.3930 C   0  0  0  0  0  0  0  0  0  0  0  0
   46.1990   34.0410   44.3710 N   0  0  0  0  0  0  0  0  0  0  0  0
   45.4530   34.1200   45.4980 C   0  0  0  0  0  0  0  0  0  0  0  0
   44.5780   35.1180   45.6930 N   0  0  0  0  0  0  0  0  0  0  0  0
   49.7180   32.9190   41.0990 C   0  0  0  0  0  0  0  0  0  0  0  0
   49.5800   32.0240   42.3170 C   0  0  0  0  0  0  0  0  0  0  0  0
   50.8590   32.7830   42.0010 C   0  0  0  0  0  0  0  0  0  0  0  0
   46.8874   35.9205   41.8002 H   0  0  0  0  0  0  0  0  0  0  0  0
   46.2052   32.9243   41.5939 H   0  0  0  0  0  0  0  0  0  0  0  0
   45.4181   34.1767   40.7033 H   0  0  0  0  0  0  0  0  0  0  0  0
   47.5064   34.7540   39.4910 H   0  0  0  0  0  0  0  0  0  0  0  0
   47.6308   32.9947   39.6085 H   0  0  0  0  0  0  0  0  0  0  0  0
   49.3783   34.9214   40.6724 H   0  0  0  0  0  0  0  0  0  0  0  0
   48.8941   34.9903   43.0542 H   0  0  0  0  0  0  0  0  0  0  0  0
   48.2477   33.3841   43.1078 H   0  0  0  0  0  0  0  0  0  0  0  0
   43.6909   36.8823   44.9512 H   0  0  0  0  0  0  0  0  0  0  0  0
   45.0188   36.8530   42.8014 H   0  0  0  0  0  0  0  0  0  0  0  0
   45.5671   33.3472   46.2725 H   0  0  0  0  0  0  0  0  0  0  0  0
   49.6655   32.8414   40.0030 H   0  0  0  0  0  0  0  0  0  0  0  0
   48.9463   32.3286   43.1629 H   0  0  0  0  0  0  0  0  0  0  0  0
   49.3065   30.9748   42.5024 H   0  0  0  0  0  0  0  0  0  0  0  0
   51.7536   32.2339   41.6721 H   0  0  0  0  0  0  0  0  0  0  0  0
   51.4920   33.4914   42.5555 H   0  0  0  0  0  0  0  0  0  0  0  0
  1  5  1  0
  1  8  1  0
  2  1  1  0
  3  4  1  0
  3  2  1  0
  4 12  1  0
  4  5  1  0
  6 11  2  0
  7  6  1  0
  8  7  2  0
  8  9  1  0
  9 10  2  0
 10 11  1  0
 12 14  1  0
 12 13  1  0
 14 13  1  0
  1 15  1  6
  2 16  1  0
  2 17  1  0
  3 18  1  0
  3 19  1  0
  4 20  1  6
  5 21  1  0
  5 22  1  0
  6 23  1  0
  7 24  1  0
 10 25  1  0
 12 26  1  0
 13 27  1  0
 13 28  1  0
 14 29  1  0
 14 30  1  0
M  ISO  8  15  13  16  13  17  13  18  13  19  13  20  13  21  13  22  13
M  ISO  8  23  14  24  14  25  14  26  13  27  13  28  13  29  13  30  13
M  END
>  <minimizedAffinity>  (1) 
-4.53601313

>  <minimizedRMSD>  (1) 
1.29787636

$$$$
