
     RDKit          3D

 44 47  0  0  1  0  0  0  0  0999 V2000
   47.1880   34.5160   41.3650 C   0  0  2  0  0  0  0  0  0  0  0  0
   46.6540   35.2040   42.5910 C   0  0  0  0  0  0  0  0  0  0  0  0
   45.2080   35.4110   42.1250 C   0  0  0  0  0  0  0  0  0  0  0  0
   44.8920   34.2140   41.2590 C   0  0  1  0  0  0  0  0  0  0  0  0
   46.1390   33.4180   41.1950 C   0  0  0  0  0  0  0  0  0  0  0  0
   50.7260   33.9070   42.5150 C   0  0  0  0  0  0  0  0  0  0  0  0
   49.4680   34.5550   42.4240 C   0  0  0  0  0  0  0  0  0  0  0  0
   48.5420   33.9210   41.5550 C   0  0  0  0  0  0  0  0  0  0  0  0
   48.8620   32.7600   40.8580 N   0  0  0  0  0  0  0  0  0  0  0  0
   50.0960   32.2280   41.0230 C   0  0  0  0  0  0  0  0  0  0  0  0
   51.0100   32.7950   41.8380 N   0  0  0  0  0  0  0  0  0  0  0  0
   43.8360   33.3280   41.8520 C   0  0  2  0  0  0  0  0  0  0  0  0
   43.6360   32.0100   41.2940 C   0  0  0  0  0  0  0  0  0  0  0  0
   42.5430   33.0720   41.2860 C   0  0  2  0  0  0  0  0  0  0  0  0
   42.0080   33.5800   39.9870 C   0  0  0  0  0  0  0  0  0  0  0  0
   42.0920   35.0620   39.7860 C   0  0  0  0  0  0  0  0  0  0  0  0
   40.7850   35.5210   39.1290 C   0  0  0  0  0  0  0  0  0  0  0  0
   39.6820   35.3360   39.9240 O   0  0  0  0  0  0  0  0  0  0  0  0
   39.7390   34.1690   40.6670 C   0  0  0  0  0  0  0  0  0  0  0  0
   40.5510   33.1810   39.8430 C   0  0  0  0  0  0  0  0  0  0  0  0
   47.3253   35.1946   40.5102 H   0  0  0  0  0  0  0  0  0  0  0  0
   46.7140   34.5646   43.4841 H   0  0  0  0  0  0  0  0  0  0  0  0
   47.1907   36.1131   42.9001 H   0  0  0  0  0  0  0  0  0  0  0  0
   44.5274   35.4523   42.9882 H   0  0  0  0  0  0  0  0  0  0  0  0
   45.0856   36.3569   41.5770 H   0  0  0  0  0  0  0  0  0  0  0  0
   44.5257   34.5678   40.2840 H   0  0  0  0  0  0  0  0  0  0  0  0
   46.1902   32.6796   42.0087 H   0  0  0  0  0  0  0  0  0  0  0  0
   46.2507   32.8190   40.2792 H   0  0  0  0  0  0  0  0  0  0  0  0
   51.4972   34.3390   43.1697 H   0  0  0  0  0  0  0  0  0  0  0  0
   49.2295   35.4732   42.9809 H   0  0  0  0  0  0  0  0  0  0  0  0
   50.3605   31.3096   40.4785 H   0  0  0  0  0  0  0  0  0  0  0  0
   44.1158   33.7443   42.8310 H   0  0  0  0  0  0  0  0  0  0  0  0
   44.1368   31.7202   40.3585 H   0  0  0  0  0  0  0  0  0  0  0  0
   43.7310   30.9753   41.6551 H   0  0  0  0  0  0  0  0  0  0  0  0
   41.5212   33.2166   41.6668 H   0  0  0  0  0  0  0  0  0  0  0  0
   42.6565   33.1210   39.2262 H   0  0  0  0  0  0  0  0  0  0  0  0
   42.2197   35.5645   40.7562 H   0  0  0  0  0  0  0  0  0  0  0  0
   42.9519   35.3150   39.1484 H   0  0  0  0  0  0  0  0  0  0  0  0
   40.8701   36.5923   38.8942 H   0  0  0  0  0  0  0  0  0  0  0  0
   40.6419   34.9081   38.2268 H   0  0  0  0  0  0  0  0  0  0  0  0
   40.2314   34.3554   41.6328 H   0  0  0  0  0  0  0  0  0  0  0  0
   38.7325   33.7805   40.8813 H   0  0  0  0  0  0  0  0  0  0  0  0
   40.2479   33.2303   38.7867 H   0  0  0  0  0  0  0  0  0  0  0  0
   40.3886   32.1504   40.1916 H   0  0  0  0  0  0  0  0  0  0  0  0
  1  8  1  0
  1  2  1  0
  3  2  1  0
  4 12  1  0
  4  3  1  0
  5  4  1  0
  5  1  1  0
  7  6  2  0
  8  7  1  0
  9 10  1  0
  9  8  2  0
 10 11  2  0
 11  6  1  0
 13 12  1  0
 14 13  1  0
 14 12  1  0
 15 14  1  0
 16 15  1  0
 17 16  1  0
 17 18  1  0
 18 19  1  0
 20 15  1  0
 20 19  1  0
  1 21  1  6
  2 22  1  0
  2 23  1  0
  3 24  1  0
  3 25  1  0
  4 26  1  6
  5 27  1  0
  5 28  1  0
  6 29  1  0
  7 30  1  0
 10 31  1  0
 12 32  1  1
 13 33  1  0
 13 34  1  0
 14 35  1  1
 15 36  1  0
 16 37  1  0
 16 38  1  0
 17 39  1  0
 17 40  1  0
 19 41  1  0
 19 42  1  0
 20 43  1  0
 20 44  1  0
M  ISO  8  21  13  22  13  23  13  24  13  25  13  26  13  27  13  28  13
M  ISO  8  29  14  30  14  31  14  32  13  33  13  34  13  35  13  36  13
M  ISO  8  37  13  38  13  39  13  40  13  41  13  42  13  43  13  44  13
M  END
>  <minimizedAffinity>  (1) 
-5.15519619

>  <minimizedRMSD>  (1) 
7.32613754

$$$$
