
     RDKit          3D

 27 29  0  0  1  0  0  0  0  0999 V2000
   48.2360   34.9530   40.0420 C   0  0  1  0  0  0  0  0  0  0  0  0
   47.4220   34.8450   41.2570 C   0  0  0  0  0  0  0  0  0  0  0  0
   48.8450   34.3790   41.2580 C   0  0  1  0  0  0  0  0  0  0  0  0
   46.7990   33.1960   38.8790 C   0  0  0  0  0  0  0  0  0  0  0  0
   47.8900   34.1130   38.8790 C   0  0  0  0  0  0  0  0  0  0  0  0
   48.6710   34.2090   37.7060 C   0  0  0  0  0  0  0  0  0  0  0  0
   48.3330   33.4120   36.6330 N   0  0  0  0  0  0  0  0  0  0  0  0
   47.2950   32.5620   36.6790 C   0  0  0  0  0  0  0  0  0  0  0  0
   46.5590   32.4770   37.7980 N   0  0  0  0  0  0  0  0  0  0  0  0
   47.6870   33.0990   43.7960 Cl  0  0  0  0  0  0  0  0  0  0  0  0
   48.6510   32.2520   42.6010 C   0  0  0  0  0  0  0  0  0  0  0  0
   49.1040   32.9620   41.5040 C   0  0  0  0  0  0  0  0  0  0  0  0
   49.8580   32.1940   40.6140 C   0  0  0  0  0  0  0  0  0  0  0  0
   50.1090   30.8680   40.8340 C   0  0  0  0  0  0  0  0  0  0  0  0
   49.6410   30.2150   41.9290 C   0  0  0  0  0  0  0  0  0  0  0  0
   48.8890   30.9160   42.8460 C   0  0  0  0  0  0  0  0  0  0  0  0
   48.5327   35.7650   39.3618 H   0  0  0  0  0  0  0  0  0  0  0  0
   47.1388   35.7512   41.8126 H   0  0  0  0  0  0  0  0  0  0  0  0
   46.4526   34.3896   41.5077 H   0  0  0  0  0  0  0  0  0  0  0  0
   49.7890   34.5936   41.7804 H   0  0  0  0  0  0  0  0  0  0  0  0
   46.1635   33.0884   39.7704 H   0  0  0  0  0  0  0  0  0  0  0  0
   49.5249   34.9002   37.6502 H   0  0  0  0  0  0  0  0  0  0  0  0
   47.0495   31.9397   35.8058 H   0  0  0  0  0  0  0  0  0  0  0  0
   50.2622   32.6703   39.7086 H   0  0  0  0  0  0  0  0  0  0  0  0
   50.7100   30.3116   40.0996 H   0  0  0  0  0  0  0  0  0  0  0  0
   49.8581   29.1474   42.0807 H   0  0  0  0  0  0  0  0  0  0  0  0
   48.4906   30.4250   43.7461 H   0  0  0  0  0  0  0  0  0  0  0  0
  1  2  1  0
  1  3  1  0
  2  3  1  0
  3 12  1  0
  4  5  2  0
  5  1  1  0
  6  5  1  0
  7  8  1  0
  7  6  2  0
  8  9  2  0
  9  4  1  0
 11 16  2  0
 11 10  1  0
 12 11  1  0
 13 14  1  0
 13 12  2  0
 14 15  2  0
 15 16  1  0
  1 17  1  6
  2 18  1  0
  2 19  1  0
  3 20  1  1
  4 21  1  0
  6 22  1  0
  8 23  1  0
 13 24  1  0
 14 25  1  0
 15 26  1  0
 16 27  1  0
M  ISO  8  17  13  18  13  19  13  20  13  21  14  22  14  23  14  24  14
M  ISO  3  25  14  26  14  27  14
M  END
>  <minimizedAffinity>  (1) 
-3.75923848

>  <minimizedRMSD>  (1) 
5.85606527

$$$$
