
     RDKit          3D

 33 35  0  0  1  0  0  0  0  0999 V2000
   48.0560   34.4650   41.1640 C   0  0  1  0  0  0  0  0  0  0  0  0
   48.7730   35.7650   41.6970 C   0  0  0  0  0  0  0  0  0  0  0  0
   48.9970   34.4370   42.2770 C   0  0  2  0  0  0  0  0  0  0  0  0
   46.5880   34.5040   41.4150 C   0  0  0  0  0  0  0  0  0  0  0  0
   45.8470   34.2890   40.4630 O   0  0  0  0  0  0  0  0  0  0  0  0
   45.3710   35.9330   42.9920 C   0  0  0  0  0  0  0  0  0  0  0  0
   45.9910   34.7710   42.6840 C   0  0  0  0  0  0  0  0  0  0  0  0
   46.0390   33.7670   43.6940 C   0  0  0  0  0  0  0  0  0  0  0  0
   45.4790   33.9890   44.9070 N   0  0  0  0  0  0  0  0  0  0  0  0
   44.8640   35.1810   45.1680 C   0  0  0  0  0  0  0  0  0  0  0  0
   44.8180   36.1160   44.2330 N   0  0  0  0  0  0  0  0  0  0  0  0
   50.2880   33.9560   42.1080 O   0  0  0  0  0  0  0  0  0  0  0  0
   48.9660   31.9590   43.0590 O   0  0  0  0  0  0  0  0  0  0  0  0
   50.1980   32.2620   42.2230 P   0  0  2  0  0  0  0  0  0  0  0  0
   51.5680   31.5660   42.8590 O   0  0  0  0  0  0  0  0  0  0  0  0
   49.8340   31.6400   40.6560 O   0  0  0  0  0  0  0  0  0  0  0  0
   50.7370   31.5670   39.6230 C   0  0  0  0  0  0  0  0  0  0  0  0
   50.5090   31.6090   38.2570 C   0  0  0  0  0  0  0  0  0  0  0  0
   51.5690   31.5190   37.3760 C   0  0  0  0  0  0  0  0  0  0  0  0
   52.8340   31.3890   37.8630 N   0  0  0  0  0  0  0  0  0  0  0  0
   53.0470   31.3510   39.1950 C   0  0  0  0  0  0  0  0  0  0  0  0
   52.0160   31.4380   40.0840 N   0  0  0  0  0  0  0  0  0  0  0  0
   47.9731   33.8643   40.2462 H   0  0  0  0  0  0  0  0  0  0  0  0
   49.5582   36.2532   41.1011 H   0  0  0  0  0  0  0  0  0  0  0  0
   48.4570   36.7511   42.0682 H   0  0  0  0  0  0  0  0  0  0  0  0
   48.8943   33.9863   43.2752 H   0  0  0  0  0  0  0  0  0  0  0  0
   45.3102   36.7358   42.2424 H   0  0  0  0  0  0  0  0  0  0  0  0
   46.5336   32.8064   43.4874 H   0  0  0  0  0  0  0  0  0  0  0  0
   44.4085   35.3627   46.1526 H   0  0  0  0  0  0  0  0  0  0  0  0
   51.5216   31.5896   43.8476 H   0  0  0  0  0  0  0  0  0  0  0  0
   49.4832   31.7141   37.8739 H   0  0  0  0  0  0  0  0  0  0  0  0
   51.3929   31.5520   36.2907 H   0  0  0  0  0  0  0  0  0  0  0  0
   54.0751   31.2475   39.5724 H   0  0  0  0  0  0  0  0  0  0  0  0
  1  4  1  0
  1  2  1  0
  1  3  1  0
  2  3  1  0
  4  7  1  0
  5  4  2  0
  6 11  2  0
  7  6  1  0
  7  8  2  0
  8  9  1  0
  9 10  2  0
 11 10  1  0
 12 14  1  0
 12  3  1  0
 14 15  1  0
 14 13  2  0
 16 14  1  0
 17 22  1  0
 17 16  1  0
 18 17  2  0
 19 20  2  0
 19 18  1  0
 20 21  1  0
 21 22  2  0
  1 23  1  6
  2 24  1  0
  2 25  1  0
  3 26  1  1
  6 27  1  0
  8 28  1  0
 10 29  1  0
 15 30  1  0
 18 31  1  0
 19 32  1  0
 21 33  1  0
M  ISO  8  23  13  24  13  25  13  26  13  27  14  28  14  29  14  30   3
M  ISO  3  31  14  32  14  33  14
M  END
>  <minimizedAffinity>  (1) 
-5.10285568

>  <minimizedRMSD>  (1) 
1.1207931

$$$$
