
     RDKit          3D

 40 42  0  0  1  0  0  0  0  0999 V2000
   47.0610   34.8140   42.1230 C   0  0  2  0  0  0  0  0  0  0  0  0
   46.2970   34.3190   40.8960 C   0  0  0  0  0  0  0  0  0  0  0  0
   47.5070   34.1500   39.9510 C   0  0  0  0  0  0  0  0  0  0  0  0
   48.6150   33.6600   40.8310 C   0  0  1  0  0  0  0  0  0  0  0  0
   48.0860   33.7200   42.2320 C   0  0  0  0  0  0  0  0  0  0  0  0
   44.5090   35.8860   44.6740 C   0  0  0  0  0  0  0  0  0  0  0  0
   45.2440   35.9030   43.4810 C   0  0  0  0  0  0  0  0  0  0  0  0
   46.1910   34.9000   43.3250 C   0  0  0  0  0  0  0  0  0  0  0  0
   46.3870   33.9310   44.3170 N   0  0  0  0  0  0  0  0  0  0  0  0
   45.6410   33.9730   45.4500 C   0  0  0  0  0  0  0  0  0  0  0  0
   44.7080   34.9500   45.6170 N   0  0  0  0  0  0  0  0  0  0  0  0
   49.0340   32.2310   40.5730 C   0  0  2  0  0  0  0  0  0  0  0  0
   49.7460   31.5760   41.6680 C   0  0  0  0  0  0  0  0  0  0  0  0
   50.4370   31.8640   40.3800 C   0  0  1  0  0  0  0  0  0  0  0  0
   50.7110   30.7710   39.5200 O   0  0  0  0  0  0  0  0  0  0  0  0
   52.4620   29.9620   37.7650 O   0  0  0  0  0  0  0  0  0  0  0  0
   52.1540   31.0900   38.7170 P   0  0  1  0  0  0  0  0  0  0  0  0
   52.0000   32.5220   37.7830 O   0  0  0  0  0  0  0  0  0  0  0  0
   53.4650   31.3130   39.7130 O   0  0  0  0  0  0  0  0  0  0  0  0
   53.8730   30.2910   40.5850 C   0  0  0  0  0  0  0  0  0  0  0  0
   54.7140   29.4090   40.3140 O   0  0  0  0  0  0  0  0  0  0  0  0
   53.3620   30.1490   41.9010 N   0  0  0  0  0  0  0  0  0  0  0  0
   47.4736   35.8305   42.0431 H   0  0  0  0  0  0  0  0  0  0  0  0
   45.7773   33.3678   41.0833 H   0  0  0  0  0  0  0  0  0  0  0  0
   45.4864   34.9689   40.5346 H   0  0  0  0  0  0  0  0  0  0  0  0
   47.7754   35.1118   39.4895 H   0  0  0  0  0  0  0  0  0  0  0  0
   47.2947   33.4550   39.1253 H   0  0  0  0  0  0  0  0  0  0  0  0
   49.4987   34.2865   40.6399 H   0  0  0  0  0  0  0  0  0  0  0  0
   48.8780   33.9823   42.9489 H   0  0  0  0  0  0  0  0  0  0  0  0
   47.6827   32.7646   42.5987 H   0  0  0  0  0  0  0  0  0  0  0  0
   43.7472   36.6613   44.8432 H   0  0  0  0  0  0  0  0  0  0  0  0
   45.0794   36.6698   42.7097 H   0  0  0  0  0  0  0  0  0  0  0  0
   45.7905   33.2165   46.2344 H   0  0  0  0  0  0  0  0  0  0  0  0
   48.1356   32.0416   39.9672 H   0  0  0  0  0  0  0  0  0  0  0  0
   50.0077   32.1435   42.5733 H   0  0  0  0  0  0  0  0  0  0  0  0
   49.5796   30.6783   42.2815 H   0  0  0  0  0  0  0  0  0  0  0  0
   51.3545   32.3965   40.0891 H   0  0  0  0  0  0  0  0  0  0  0  0
   51.9161   33.3022   38.3866 H   0  0  0  0  0  0  0  0  0  0  0  0
   53.6939   29.3814   42.5023 H   0  0  0  0  0  0  0  0  0  0  0  0
   52.6591   30.8135   42.2550 H   0  0  0  0  0  0  0  0  0  0  0  0
  1  5  1  0
  1  8  1  0
  2  1  1  0
  3  4  1  0
  3  2  1  0
  4  5  1  0
  6 11  2  0
  7  6  1  0
  8  7  2  0
  8  9  1  0
  9 10  2  0
 10 11  1  0
 12  4  1  0
 12 13  1  0
 14 12  1  0
 14 13  1  0
 15 14  1  0
 17 16  2  0
 17 15  1  0
 17 19  1  0
 18 17  1  0
 19 20  1  0
 20 22  1  0
 21 20  2  0
  1 23  1  6
  2 24  1  0
  2 25  1  0
  3 26  1  0
  3 27  1  0
  4 28  1  1
  5 29  1  0
  5 30  1  0
  6 31  1  0
  7 32  1  0
 10 33  1  0
 12 34  1  6
 13 35  1  0
 13 36  1  0
 14 37  1  1
 18 38  1  0
 22 39  1  0
 22 40  1  0
M  ISO  8  23  13  24  13  25  13  26  13  27  13  28  13  29  13  30  13
M  ISO  8  31  14  32  14  33  14  34  13  35  13  36  13  37  13  38   3
M  END
>  <minimizedAffinity>  (1) 
-5.2151022

>  <minimizedRMSD>  (1) 
0.723482132

$$$$
