
     RDKit          3D

 22 23  0  0  1  0  0  0  0  0999 V2000
   46.0000   34.7040   43.5520 C   0  0  0  0  0  0  0  0  0  0  0  0
   45.0750   35.6850   43.9900 C   0  0  0  0  0  0  0  0  0  0  0  0
   44.5410   35.5130   45.2730 C   0  0  0  0  0  0  0  0  0  0  0  0
   44.9350   34.4360   46.0110 N   0  0  0  0  0  0  0  0  0  0  0  0
   45.8320   33.5330   45.5210 C   0  0  0  0  0  0  0  0  0  0  0  0
   46.3650   33.6460   44.3190 N   0  0  0  0  0  0  0  0  0  0  0  0
   46.2240   32.3880   46.3920 C   0  0  1  0  0  0  0  0  0  0  0  0
   47.1970   32.5900   47.5080 C   0  0  0  0  0  0  0  0  0  0  0  0
   45.7390   32.4890   47.8020 C   0  0  2  0  0  0  0  0  0  0  0  0
   45.3390   31.2680   48.5870 C   0  0  0  0  0  0  0  0  0  0  0  0
   46.4540   30.4620   48.8300 F   0  0  0  0  0  0  0  0  0  0  0  0
   44.7610   31.5540   49.8010 F   0  0  0  0  0  0  0  0  0  0  0  0
   44.4640   30.4760   47.8820 F   0  0  0  0  0  0  0  0  0  0  0  0
   46.5310   34.9250   42.2340 C   0  0  0  0  0  0  0  0  0  0  0  0
   47.7000   35.3570   41.9830 O   0  0  0  0  0  0  0  0  0  0  0  0
   44.7914   36.5372   43.3549 H   0  0  0  0  0  0  0  0  0  0  0  0
   43.8162   36.2342   45.6786 H   0  0  0  0  0  0  0  0  0  0  0  0
   46.1764   31.6631   45.5660 H   0  0  0  0  0  0  0  0  0  0  0  0
   47.8747   31.7745   47.8009 H   0  0  0  0  0  0  0  0  0  0  0  0
   47.9853   33.3248   47.7285 H   0  0  0  0  0  0  0  0  0  0  0  0
   44.9549   33.1021   48.2703 H   0  0  0  0  0  0  0  0  0  0  0  0
   45.8762   34.7035   41.3783 H   0  0  0  0  0  0  0  0  0  0  0  0
  1  2  2  0
  1  6  1  0
  2  3  1  0
  3  4  2  0
  5  4  1  0
  5  7  1  0
  6  5  2  0
  7  8  1  0
  7  9  1  0
  8  9  1  0
  9 10  1  0
 10 11  1  0
 10 12  1  0
 13 10  1  0
 14  1  1  0
 15 14  2  0
  2 16  1  0
  3 17  1  0
  7 18  1  6
  8 19  1  0
  8 20  1  0
  9 21  1  6
 14 22  1  0
M  ISO  7  16  14  17  14  18  13  19  13  20  13  21  13  22   6
M  END
>  <minimizedAffinity>  (1) 
-4.99910212

>  <minimizedRMSD>  (1) 
0.452178478

$$$$
