
     RDKit          3D

 34 37  0  0  1  0  0  0  0  0999 V2000
   46.6610   34.7740   43.1590 C   0  0  0  0  0  0  0  0  0  0  0  0
   45.5780   35.6870   43.3260 C   0  0  0  0  0  0  0  0  0  0  0  0
   44.7080   35.4730   44.4040 C   0  0  0  0  0  0  0  0  0  0  0  0
   44.9530   34.4160   45.2150 N   0  0  0  0  0  0  0  0  0  0  0  0
   46.0160   33.5740   44.9970 C   0  0  0  0  0  0  0  0  0  0  0  0
   46.8640   33.7350   43.9920 N   0  0  0  0  0  0  0  0  0  0  0  0
   46.2340   32.4340   45.9440 C   0  0  1  0  0  0  0  0  0  0  0  0
   46.9870   32.6860   47.2310 C   0  0  0  0  0  0  0  0  0  0  0  0
   45.4900   32.5450   47.2150 C   0  0  1  0  0  0  0  0  0  0  0  0
   44.8210   33.8070   47.5500 N   0  0  0  0  0  0  0  0  0  0  0  0
   47.5090   35.0640   42.0430 C   0  0  0  0  0  0  0  0  0  0  0  0
   48.4940   35.8800   42.0930 O   0  0  0  0  0  0  0  0  0  0  0  0
   46.2610   33.7130   40.3590 C   0  0  0  0  0  0  0  0  0  0  0  0
   47.3580   34.4700   40.7180 C   0  0  0  0  0  0  0  0  0  0  0  0
   48.3260   34.6400   39.7430 C   0  0  0  0  0  0  0  0  0  0  0  0
   48.1990   34.0800   38.4700 C   0  0  0  0  0  0  0  0  0  0  0  0
   48.9760   34.0910   37.3590 N   0  0  0  0  0  0  0  0  0  0  0  0
   48.3870   33.3820   36.3800 C   0  0  0  0  0  0  0  0  0  0  0  0
   47.2070   32.9070   36.8760 N   0  0  0  0  0  0  0  0  0  0  0  0
   47.0830   33.3270   38.1470 C   0  0  0  0  0  0  0  0  0  0  0  0
   46.0960   33.1420   39.1120 C   0  0  0  0  0  0  0  0  0  0  0  0
   45.4308   36.5290   42.6336 H   0  0  0  0  0  0  0  0  0  0  0  0
   43.8538   36.1419   44.5856 H   0  0  0  0  0  0  0  0  0  0  0  0
   46.3464   31.6892   45.1423 H   0  0  0  0  0  0  0  0  0  0  0  0
   47.6130   31.8953   47.6702 H   0  0  0  0  0  0  0  0  0  0  0  0
   47.7012   33.4425   47.5882 H   0  0  0  0  0  0  0  0  0  0  0  0
   44.7244   31.9001   47.6711 H   0  0  0  0  0  0  0  0  0  0  0  0
   44.7683   33.9064   48.5738 H   0  0  0  0  0  0  0  0  0  0  0  0
   45.3556   34.5942   47.1557 H   0  0  0  0  0  0  0  0  0  0  0  0
   45.4724   33.5553   41.1095 H   0  0  0  0  0  0  0  0  0  0  0  0
   49.2217   35.2337   39.9780 H   0  0  0  0  0  0  0  0  0  0  0  0
   49.8834   34.5715   37.2770 H   0  0  0  0  0  0  0  0  0  0  0  0
   48.7826   33.2155   35.3672 H   0  0  0  0  0  0  0  0  0  0  0  0
   45.1976   32.5495   38.8844 H   0  0  0  0  0  0  0  0  0  0  0  0
  1  2  2  0
  1  6  1  0
  2  3  1  0
  3  4  2  0
  5  4  1  0
  5  7  1  0
  6  5  2  0
  7  9  1  0
  7  8  1  0
  9  8  1  0
  9 10  1  0
 11 12  2  0
 11  1  1  0
 13 14  2  0
 14 11  1  0
 15 14  1  0
 16 15  2  0
 17 16  1  0
 18 19  2  0
 18 17  1  0
 19 20  1  0
 20 16  1  0
 20 21  2  0
 21 13  1  0
  2 22  1  0
  3 23  1  0
  7 24  1  6
  8 25  1  0
  8 26  1  0
  9 27  1  1
 10 28  1  0
 10 29  1  0
 13 30  1  0
 15 31  1  0
 17 32  1  0
 18 33  1  0
 21 34  1  0
M  ISO  8  22  14  23  14  24  13  25  13  26  13  27  13  28   5  29   5
M  ISO  5  30  14  31  14  32   9  33  14  34  14
M  END
>  <minimizedAffinity>  (1) 
-6.55682659

>  <minimizedRMSD>  (1) 
1.41648006

$$$$
