
     RDKit          3D

 45 48  0  0  1  0  0  0  0  0999 V2000
   50.0610   33.9750   42.0760 O   0  0  0  0  0  0  0  0  0  0  0  0
   47.8210   34.4840   41.1870 C   0  0  1  0  0  0  0  0  0  0  0  0
   48.5850   35.7860   41.6570 C   0  0  0  0  0  0  0  0  0  0  0  0
   48.8050   34.5100   42.2960 C   0  0  2  0  0  0  0  0  0  0  0  0
   46.3620   34.5670   41.4910 C   0  0  0  0  0  0  0  0  0  0  0  0
   45.5820   34.3750   40.5670 O   0  0  0  0  0  0  0  0  0  0  0  0
   45.2520   36.0240   43.1250 C   0  0  0  0  0  0  0  0  0  0  0  0
   45.8110   34.8510   42.7680 C   0  0  0  0  0  0  0  0  0  0  0  0
   45.8380   33.8260   43.7720 C   0  0  0  0  0  0  0  0  0  0  0  0
   45.3250   34.0450   45.0050 N   0  0  0  0  0  0  0  0  0  0  0  0
   44.7740   35.2470   45.3080 C   0  0  0  0  0  0  0  0  0  0  0  0
   44.7430   36.1980   44.3920 N   0  0  0  0  0  0  0  0  0  0  0  0
   48.8850   32.0960   43.4020 O   0  0  0  0  0  0  0  0  0  0  0  0
   49.9650   32.3100   42.3490 P   0  0  2  0  0  0  0  0  0  0  0  0
   51.3880   31.5740   42.7560 O   0  0  0  0  0  0  0  0  0  0  0  0
   49.2810   31.6020   40.9160 O   0  0  0  0  0  0  0  0  0  0  0  0
   49.8690   31.6630   39.6720 C   0  0  0  0  0  0  0  0  0  0  0  0
   49.3210   32.0670   38.4630 C   0  0  0  0  0  0  0  0  0  0  0  0
   50.0930   32.0570   37.3140 C   0  0  0  0  0  0  0  0  0  0  0  0
   51.3800   31.6490   37.3960 N   0  0  0  0  0  0  0  0  0  0  0  0
   51.9220   31.2560   38.5630 C   0  0  0  0  0  0  0  0  0  0  0  0
   51.1730   31.2590   39.7150 N   0  0  0  0  0  0  0  0  0  0  0  0
   53.2840   30.8360   38.5890 N   0  0  0  0  0  0  0  0  0  0  0  0
   53.7850   29.8610   39.5200 C   0  0  0  0  0  0  0  0  0  0  0  0
   55.1950   29.5780   39.0750 C   0  0  0  0  0  0  0  0  0  0  0  0
   55.3400   30.1540   37.6950 C   0  0  0  0  0  0  0  0  0  0  0  0
   54.3510   31.3000   37.7220 C   0  0  0  0  0  0  0  0  0  0  0  0
   47.7006   33.8463   40.2988 H   0  0  0  0  0  0  0  0  0  0  0  0
   49.3660   36.2298   41.0221 H   0  0  0  0  0  0  0  0  0  0  0  0
   48.2923   36.7925   41.9904 H   0  0  0  0  0  0  0  0  0  0  0  0
   48.7342   34.1426   43.3304 H   0  0  0  0  0  0  0  0  0  0  0  0
   45.2021   36.8485   42.3986 H   0  0  0  0  0  0  0  0  0  0  0  0
   46.2823   32.8478   43.5359 H   0  0  0  0  0  0  0  0  0  0  0  0
   44.3561   35.4283   46.3092 H   0  0  0  0  0  0  0  0  0  0  0  0
   51.4680   31.5326   43.7419 H   0  0  0  0  0  0  0  0  0  0  0  0
   48.2722   32.3955   38.4175 H   0  0  0  0  0  0  0  0  0  0  0  0
   49.6672   32.3753   36.3510 H   0  0  0  0  0  0  0  0  0  0  0  0
   53.7772   30.2650   40.5431 H   0  0  0  0  0  0  0  0  0  0  0  0
   53.1678   28.9506   39.5337 H   0  0  0  0  0  0  0  0  0  0  0  0
   55.9111   30.0541   39.7610 H   0  0  0  0  0  0  0  0  0  0  0  0
   55.3986   28.4970   39.0743 H   0  0  0  0  0  0  0  0  0  0  0  0
   55.0739   29.4155   36.9244 H   0  0  0  0  0  0  0  0  0  0  0  0
   56.3672   30.4625   37.4507 H   0  0  0  0  0  0  0  0  0  0  0  0
   54.8182   32.2077   38.1315 H   0  0  0  0  0  0  0  0  0  0  0  0
   53.9894   31.5654   36.7176 H   0  0  0  0  0  0  0  0  0  0  0  0
  1  4  1  0
  1 14  1  0
  2  5  1  0
  2  3  1  0
  2  4  1  0
  3  4  1  0
  5  8  1  0
  6  5  2  0
  7 12  2  0
  8  7  1  0
  8  9  2  0
  9 10  1  0
 10 11  2  0
 12 11  1  0
 14 15  1  0
 14 13  2  0
 16 14  1  0
 17 22  1  0
 17 16  1  0
 18 17  2  0
 19 20  2  0
 19 18  1  0
 20 21  1  0
 21 23  1  0
 21 22  2  0
 23 24  1  0
 25 24  1  0
 26 27  1  0
 26 25  1  0
 27 23  1  0
  2 28  1  6
  3 29  1  0
  3 30  1  0
  4 31  1  1
  7 32  1  0
  9 33  1  0
 11 34  1  0
 15 35  1  0
 18 36  1  0
 19 37  1  0
 24 38  1  0
 24 39  1  0
 25 40  1  0
 25 41  1  0
 26 42  1  0
 26 43  1  0
 27 44  1  0
 27 45  1  0
M  ISO  8  28  13  29  13  30  13  31  13  32  14  33  14  34  14  35   3
M  ISO  8  36  14  37  14  38  13  39  13  40  13  41  13  42  13  43  13
M  ISO  2  44  13  45  13
M  END
>  <minimizedAffinity>  (1) 
-5.53264046

>  <minimizedRMSD>  (1) 
1.06467068

$$$$
