
     RDKit          3D

 22 23  0  0  1  0  0  0  0  0999 V2000
   46.2300   34.7550   43.2210 C   0  0  0  0  0  0  0  0  0  0  0  0
   45.2770   35.7550   43.5740 C   0  0  0  0  0  0  0  0  0  0  0  0
   44.6350   35.5880   44.8010 C   0  0  0  0  0  0  0  0  0  0  0  0
   44.9510   34.5110   45.5650 N   0  0  0  0  0  0  0  0  0  0  0  0
   45.8800   33.5880   45.1570 C   0  0  0  0  0  0  0  0  0  0  0  0
   46.5250   33.6830   44.0090 N   0  0  0  0  0  0  0  0  0  0  0  0
   46.1830   32.4350   46.0610 C   0  0  1  0  0  0  0  0  0  0  0  0
   47.0190   32.6770   47.2970 C   0  0  0  0  0  0  0  0  0  0  0  0
   45.5270   32.5030   47.3830 C   0  0  1  0  0  0  0  0  0  0  0  0
   44.8560   33.7440   47.7910 N   0  0  0  0  0  0  0  0  0  0  0  0
   46.8880   34.9540   41.9490 C   0  0  0  0  0  0  0  0  0  0  0  0
   48.0480   35.4810   41.8280 O   0  0  0  0  0  0  0  0  0  0  0  0
   46.2760   34.5680   40.7410 O   0  0  0  0  0  0  0  0  0  0  0  0
   45.0604   36.6096   42.9161 H   0  0  0  0  0  0  0  0  0  0  0  0
   43.8855   36.3164   45.1438 H   0  0  0  0  0  0  0  0  0  0  0  0
   46.2525   31.7091   45.2374 H   0  0  0  0  0  0  0  0  0  0  0  0
   47.6907   31.8915   47.6737 H   0  0  0  0  0  0  0  0  0  0  0  0
   47.7407   33.4418   47.6200 H   0  0  0  0  0  0  0  0  0  0  0  0
   44.8091   31.8321   47.8775 H   0  0  0  0  0  0  0  0  0  0  0  0
   44.8274   33.7968   48.8192 H   0  0  0  0  0  0  0  0  0  0  0  0
   45.3748   34.5528   47.4200 H   0  0  0  0  0  0  0  0  0  0  0  0
   46.7438   34.7132   39.8806 H   0  0  0  0  0  0  0  0  0  0  0  0
  1  2  2  0
  1  6  1  0
  2  3  1  0
  3  4  2  0
  5  4  1  0
  5  7  1  0
  6  5  2  0
  7  8  1  0
  7  9  1  0
  8  9  1  0
  9 10  1  0
 11  1  1  0
 12 11  2  0
 13 11  1  0
  2 14  1  0
  3 15  1  0
  7 16  1  6
  8 17  1  0
  8 18  1  0
  9 19  1  1
 10 20  1  0
 10 21  1  0
 13 22  1  0
M  ISO  8  14  14  15  14  16  13  17  13  18  13  19  13  20   5  21   5
M  ISO  1  22   3
M  END
>  <minimizedAffinity>  (1) 
-4.88667631

>  <minimizedRMSD>  (1) 
0.0409342498

$$$$
