
     RDKit          3D

 46 49  0  0  1  0  0  0  0  0999 V2000
   48.8800   32.1160   43.4130 O   0  0  0  0  0  0  0  0  0  0  0  0
   49.9400   32.3320   42.3430 P   0  0  2  0  0  0  0  0  0  0  0  0
   51.3640   31.5810   42.7110 O   0  0  0  0  0  0  0  0  0  0  0  0
   50.0450   34.0000   42.0830 O   0  0  0  0  0  0  0  0  0  0  0  0
   47.8010   34.5010   41.1950 C   0  0  1  0  0  0  0  0  0  0  0  0
   48.5670   35.8070   41.6520 C   0  0  0  0  0  0  0  0  0  0  0  0
   48.7880   34.5360   42.3020 C   0  0  2  0  0  0  0  0  0  0  0  0
   46.3450   34.5840   41.5000 C   0  0  0  0  0  0  0  0  0  0  0  0
   45.5610   34.3980   40.5800 O   0  0  0  0  0  0  0  0  0  0  0  0
   45.2390   36.0270   43.1500 C   0  0  0  0  0  0  0  0  0  0  0  0
   45.7950   34.8620   42.7820 C   0  0  0  0  0  0  0  0  0  0  0  0
   45.8250   33.8350   43.7840 C   0  0  0  0  0  0  0  0  0  0  0  0
   45.3180   34.0480   45.0180 N   0  0  0  0  0  0  0  0  0  0  0  0
   44.7680   35.2530   45.3270 C   0  0  0  0  0  0  0  0  0  0  0  0
   44.7340   36.2050   44.4150 N   0  0  0  0  0  0  0  0  0  0  0  0
   49.2210   31.6440   40.9160 O   0  0  0  0  0  0  0  0  0  0  0  0
   49.7950   31.6900   39.6670 C   0  0  0  0  0  0  0  0  0  0  0  0
   49.2310   32.0710   38.4560 C   0  0  0  0  0  0  0  0  0  0  0  0
   49.9850   32.0470   37.3020 C   0  0  0  0  0  0  0  0  0  0  0  0
   51.2810   31.6480   37.3650 N   0  0  0  0  0  0  0  0  0  0  0  0
   51.8350   31.2750   38.5410 C   0  0  0  0  0  0  0  0  0  0  0  0
   51.1070   31.2890   39.7040 N   0  0  0  0  0  0  0  0  0  0  0  0
   53.2000   30.8670   38.5290 N   0  0  0  0  0  0  0  0  0  0  0  0
   53.5610   29.6900   39.2550 C   0  0  0  0  0  0  0  0  0  0  0  0
   54.7530   28.9710   38.6280 C   0  0  0  0  0  0  0  0  0  0  0  0
   55.7310   29.8830   38.2330 O   0  0  0  0  0  0  0  0  0  0  0  0
   55.1840   30.6060   37.1830 C   0  0  0  0  0  0  0  0  0  0  0  0
   54.2100   31.6140   37.8060 C   0  0  0  0  0  0  0  0  0  0  0  0
   51.4646   31.5280   43.6944 H   0  0  0  0  0  0  0  0  0  0  0  0
   47.6782   33.8565   40.3121 H   0  0  0  0  0  0  0  0  0  0  0  0
   49.3468   36.2448   41.0115 H   0  0  0  0  0  0  0  0  0  0  0  0
   48.2755   36.8166   41.9773 H   0  0  0  0  0  0  0  0  0  0  0  0
   48.7191   34.1768   43.3394 H   0  0  0  0  0  0  0  0  0  0  0  0
   45.1869   36.8535   42.4260 H   0  0  0  0  0  0  0  0  0  0  0  0
   46.2684   32.8576   43.5431 H   0  0  0  0  0  0  0  0  0  0  0  0
   44.3545   35.4322   46.3304 H   0  0  0  0  0  0  0  0  0  0  0  0
   48.1798   32.3928   38.4177 H   0  0  0  0  0  0  0  0  0  0  0  0
   49.5415   32.3477   36.3413 H   0  0  0  0  0  0  0  0  0  0  0  0
   53.8204   29.9745   40.2854 H   0  0  0  0  0  0  0  0  0  0  0  0
   52.7022   29.0029   39.2347 H   0  0  0  0  0  0  0  0  0  0  0  0
   55.1838   28.2772   39.3650 H   0  0  0  0  0  0  0  0  0  0  0  0
   54.4056   28.4211   37.7409 H   0  0  0  0  0  0  0  0  0  0  0  0
   54.6474   29.9333   36.4978 H   0  0  0  0  0  0  0  0  0  0  0  0
   55.9665   31.1169   36.6028 H   0  0  0  0  0  0  0  0  0  0  0  0
   54.7501   32.2781   38.4969 H   0  0  0  0  0  0  0  0  0  0  0  0
   53.7442   32.2314   37.0238 H   0  0  0  0  0  0  0  0  0  0  0  0
  2  3  1  0
  2  1  2  0
  4  7  1  0
  4  2  1  0
  5  8  1  0
  5  6  1  0
  5  7  1  0
  6  7  1  0
  8 11  1  0
  9  8  2  0
 10 15  2  0
 11 10  1  0
 11 12  2  0
 12 13  1  0
 13 14  2  0
 15 14  1  0
 16  2  1  0
 17 22  1  0
 17 16  1  0
 18 17  2  0
 19 20  2  0
 19 18  1  0
 20 21  1  0
 21 22  2  0
 23 21  1  0
 23 24  1  0
 25 24  1  0
 26 25  1  0
 27 28  1  0
 27 26  1  0
 28 23  1  0
  3 29  1  0
  5 30  1  6
  6 31  1  0
  6 32  1  0
  7 33  1  1
 10 34  1  0
 12 35  1  0
 14 36  1  0
 18 37  1  0
 19 38  1  0
 24 39  1  0
 24 40  1  0
 25 41  1  0
 25 42  1  0
 27 43  1  0
 27 44  1  0
 28 45  1  0
 28 46  1  0
M  ISO  8  29   3  30  13  31  13  32  13  33  13  34  14  35  14  36  14
M  ISO  8  37  14  38  14  39  13  40  13  41  13  42  13  43  13  44  13
M  ISO  2  45  13  46  13
M  END
>  <minimizedAffinity>  (1) 
-5.50935555

>  <minimizedRMSD>  (1) 
1.196733

$$$$
