
     RDKit          3D

 42 45  0  0  1  0  0  0  0  0999 V2000
   44.2260   34.3700   41.5500 C   0  0  0  0  0  0  0  0  0  0  0  0
   45.1030   34.2690   40.6230 O   0  0  0  0  0  0  0  0  0  0  0  0
   42.0330   33.2880   41.1480 C   0  0  0  0  0  0  0  0  0  0  0  0
   42.7870   34.4110   41.3250 C   0  0  0  0  0  0  0  0  0  0  0  0
   42.1300   35.6550   41.2780 C   0  0  0  0  0  0  0  0  0  0  0  0
   40.7830   35.7900   41.0640 C   0  0  0  0  0  0  0  0  0  0  0  0
   40.0320   34.6560   40.8880 C   0  0  0  0  0  0  0  0  0  0  0  0
   40.6590   33.4460   40.9320 C   0  0  0  0  0  0  0  0  0  0  0  0
   42.6870   31.7330   41.2310 S   0  0  0  0  0  0  0  0  0  0  0  0
   41.5970   30.8900   40.5300 O   0  0  0  0  0  0  0  0  0  0  0  0
   42.7920   31.2370   42.6360 O   0  0  0  0  0  0  0  0  0  0  0  0
   43.8440   30.9930   40.2590 C   0  0  0  0  0  0  0  0  0  0  0  0
   43.8470   31.4060   38.9030 C   0  0  0  0  0  0  0  0  0  0  0  0
   44.7570   30.9780   37.9730 C   0  0  0  0  0  0  0  0  0  0  0  0
   45.6790   30.1200   38.4060 N   0  0  0  0  0  0  0  0  0  0  0  0
   45.7500   29.6840   39.6460 C   0  0  0  0  0  0  0  0  0  0  0  0
   44.8470   30.1290   40.5060 N   0  0  0  0  0  0  0  0  0  0  0  0
   44.5800   34.4570   42.9370 C   0  0  0  0  0  0  0  0  0  0  0  0
   44.3040   35.7130   43.5710 C   0  0  0  0  0  0  0  0  0  0  0  0
   44.6310   35.8120   44.9130 C   0  0  0  0  0  0  0  0  0  0  0  0
   45.1800   34.7380   45.5340 N   0  0  0  0  0  0  0  0  0  0  0  0
   45.4250   33.5550   44.8840 C   0  0  0  0  0  0  0  0  0  0  0  0
   45.1230   33.4630   43.6370 N   0  0  0  0  0  0  0  0  0  0  0  0
   46.0150   32.4410   45.6440 C   0  0  1  0  0  0  0  0  0  0  0  0
   46.9650   32.7500   46.7820 C   0  0  0  0  0  0  0  0  0  0  0  0
   45.5510   32.3240   47.0530 C   0  0  1  0  0  0  0  0  0  0  0  0
   44.7730   33.4010   47.6470 N   0  0  0  0  0  0  0  0  0  0  0  0
   42.7290   36.5665   41.4205 H   0  0  0  0  0  0  0  0  0  0  0  0
   40.3150   36.7850   41.0341 H   0  0  0  0  0  0  0  0  0  0  0  0
   38.9476   34.7212   40.7151 H   0  0  0  0  0  0  0  0  0  0  0  0
   40.0497   32.5414   40.7895 H   0  0  0  0  0  0  0  0  0  0  0  0
   43.0706   32.1139   38.5775 H   0  0  0  0  0  0  0  0  0  0  0  0
   44.7280   31.3230   36.9289 H   0  0  0  0  0  0  0  0  0  0  0  0
   46.5317   28.9752   39.9567 H   0  0  0  0  0  0  0  0  0  0  0  0
   43.8562   36.5535   43.0205 H   0  0  0  0  0  0  0  0  0  0  0  0
   44.4488   36.7453   45.4659 H   0  0  0  0  0  0  0  0  0  0  0  0
   46.0785   31.7842   44.7639 H   0  0  0  0  0  0  0  0  0  0  0  0
   47.7995   32.0690   47.0053 H   0  0  0  0  0  0  0  0  0  0  0  0
   47.5927   33.6072   47.0670 H   0  0  0  0  0  0  0  0  0  0  0  0
   45.0237   31.5155   47.5805 H   0  0  0  0  0  0  0  0  0  0  0  0
   44.8216   33.3338   48.6737 H   0  0  0  0  0  0  0  0  0  0  0  0
   45.1551   34.3082   47.3439 H   0  0  0  0  0  0  0  0  0  0  0  0
  1 18  1  0
  2  1  2  0
  3  9  1  0
  3  4  1  0
  4  1  1  0
  5  4  2  0
  6  5  1  0
  7  8  1  0
  7  6  2  0
  8  3  2  0
  9 11  2  0
 10  9  2  0
 12 17  1  0
 12  9  1  0
 13 12  2  0
 14 15  2  0
 14 13  1  0
 15 16  1  0
 16 17  2  0
 18 19  2  0
 18 23  1  0
 19 20  1  0
 20 21  2  0
 22 21  1  0
 22 24  1  0
 23 22  2  0
 24 25  1  0
 24 26  1  0
 25 26  1  0
 26 27  1  0
  5 28  1  0
  6 29  1  0
  7 30  1  0
  8 31  1  0
 13 32  1  0
 14 33  1  0
 16 34  1  0
 19 35  1  0
 20 36  1  0
 24 37  1  6
 25 38  1  0
 25 39  1  0
 26 40  1  1
 27 41  1  0
 27 42  1  0
M  ISO  8  28  14  29  14  30  14  31  14  32  14  33  14  34  14  35  14
M  ISO  7  36  14  37  13  38  13  39  13  40  13  41   5  42   5
M  END
>  <minimizedAffinity>  (1) 
-5.75449324

>  <minimizedRMSD>  (1) 
1.40785778

$$$$
