
     RDKit          3D

 43 46  0  0  0  0  0  0  0  0999 V2000
   45.0620   35.4710   43.3230 C   0  0  0  0  0  0  0  0  0  0  0  0
   45.5030   34.1580   43.3690 C   0  0  0  0  0  0  0  0  0  0  0  0
   45.4920   33.4680   44.5560 C   0  0  0  0  0  0  0  0  0  0  0  0
   45.0270   34.1410   45.6680 N   0  0  0  0  0  0  0  0  0  0  0  0
   44.6030   35.4030   45.6230 C   0  0  0  0  0  0  0  0  0  0  0  0
   44.6260   36.0590   44.4450 N   0  0  0  0  0  0  0  0  0  0  0  0
   45.9070   32.1330   44.7630 C   0  0  0  0  0  0  0  0  0  0  0  0
   45.6380   31.0820   43.8840 C   0  0  0  0  0  0  0  0  0  0  0  0
   45.9820   29.7770   44.1160 C   0  0  0  0  0  0  0  0  0  0  0  0
   46.6340   29.4400   45.2760 C   0  0  0  0  0  0  0  0  0  0  0  0
   46.9220   30.4990   46.1910 C   0  0  0  0  0  0  0  0  0  0  0  0
   47.5720   30.1650   47.3500 C   0  0  0  0  0  0  0  0  0  0  0  0
   47.8820   31.1420   48.2740 C   0  0  0  0  0  0  0  0  0  0  0  0
   47.5270   32.4730   48.0150 C   0  0  0  0  0  0  0  0  0  0  0  0
   46.8620   32.7610   46.8120 C   0  0  0  0  0  0  0  0  0  0  0  0
   46.5600   31.7770   45.9120 C   0  0  0  0  0  0  0  0  0  0  0  0
   45.9350   33.6060   42.1930 O   0  0  0  0  0  0  0  0  0  0  0  0
   48.2250   32.5600   41.4760 O   0  0  0  0  0  0  0  0  0  0  0  0
   47.4750   33.8460   41.5310 P   0  0  1  0  0  0  0  0  0  0  0  0
   47.3620   34.4190   39.9430 O   0  0  0  0  0  0  0  0  0  0  0  0
   47.3700   33.5280   38.8320 C   0  0  0  0  0  0  0  0  0  0  0  0
   46.9280   32.2710   38.3090 C   0  0  0  0  0  0  0  0  0  0  0  0
   47.3560   32.0350   37.0350 C   0  0  0  0  0  0  0  0  0  0  0  0
   48.1200   32.8920   36.3250 C   0  0  0  0  0  0  0  0  0  0  0  0
   48.3830   34.2820   37.4200 S   0  0  0  0  0  0  0  0  0  0  0  0
   48.2820   34.9810   42.4630 O   0  0  0  0  0  0  0  0  0  0  0  0
   49.5660   35.4610   42.2570 C   0  0  0  0  0  0  0  0  0  0  0  0
   49.4100   36.5020   41.5920 O   0  0  0  0  0  0  0  0  0  0  0  0
   50.5400   34.5980   42.8740 N   0  0  0  0  0  0  0  0  0  0  0  0
   45.0699   36.0257   42.3732 H   0  0  0  0  0  0  0  0  0  0  0  0
   44.2395   35.9026   46.5331 H   0  0  0  0  0  0  0  0  0  0  0  0
   45.1162   31.3175   42.9447 H   0  0  0  0  0  0  0  0  0  0  0  0
   45.7367   29.0015   43.3754 H   0  0  0  0  0  0  0  0  0  0  0  0
   46.9221   28.4005   45.4916 H   0  0  0  0  0  0  0  0  0  0  0  0
   47.8468   29.1177   47.5440 H   0  0  0  0  0  0  0  0  0  0  0  0
   48.4034   30.8784   49.2060 H   0  0  0  0  0  0  0  0  0  0  0  0
   47.7630   33.2707   48.7348 H   0  0  0  0  0  0  0  0  0  0  0  0
   46.5781   33.8001   46.5891 H   0  0  0  0  0  0  0  0  0  0  0  0
   46.3050   31.5651   38.8778 H   0  0  0  0  0  0  0  0  0  0  0  0
   47.0606   31.0891   36.5576 H   0  0  0  0  0  0  0  0  0  0  0  0
   48.4974   32.7639   35.2997 H   0  0  0  0  0  0  0  0  0  0  0  0
   51.5429   34.8230   42.8076 H   0  0  0  0  0  0  0  0  0  0  0  0
   50.2337   33.7558   43.3817 H   0  0  0  0  0  0  0  0  0  0  0  0
  1  2  2  0
  1  6  1  0
  2  3  1  0
  3  7  1  0
  3  4  2  0
  5  4  1  0
  6  5  2  0
  7 16  2  0
  8  9  2  0
  8  7  1  0
  9 10  1  0
 10 11  2  0
 11 12  1  0
 12 13  2  0
 14 13  1  0
 15 14  2  0
 16 11  1  0
 16 15  1  0
 17  2  1  0
 19 18  2  0
 19 17  1  0
 19 26  1  0
 20 19  1  0
 21 20  1  0
 22 21  2  0
 23 22  1  0
 24 23  2  0
 24 25  1  0
 25 21  1  0
 27 26  1  0
 27 29  1  0
 28 27  2  0
  1 30  1  0
  5 31  1  0
  8 32  1  0
  9 33  1  0
 10 34  1  0
 12 35  1  0
 13 36  1  0
 14 37  1  0
 15 38  1  0
 22 39  1  0
 23 40  1  0
 24 41  1  0
 29 42  1  0
 29 43  1  0
M  ISO  8  30  14  31  14  32  14  33  14  34  14  35  14  36  14  37  14
M  ISO  4  38  14  39  14  40  14  41  14
M  END
>  <minimizedAffinity>  (1) 
-6.32111454

>  <minimizedRMSD>  (1) 
1.54738474

$$$$
