
     RDKit          3D

 39 41  0  0  0  0  0  0  0  0999 V2000
   45.1230   35.5470   43.2540 C   0  0  0  0  0  0  0  0  0  0  0  0
   45.5130   34.2180   43.3060 C   0  0  0  0  0  0  0  0  0  0  0  0
   45.4560   33.5350   44.4950 C   0  0  0  0  0  0  0  0  0  0  0  0
   44.9990   34.2300   45.5970 N   0  0  0  0  0  0  0  0  0  0  0  0
   44.6260   35.5060   45.5370 C   0  0  0  0  0  0  0  0  0  0  0  0
   44.6940   36.1550   44.3560 N   0  0  0  0  0  0  0  0  0  0  0  0
   45.8160   32.1840   44.7160 C   0  0  0  0  0  0  0  0  0  0  0  0
   45.4910   31.1360   43.8510 C   0  0  0  0  0  0  0  0  0  0  0  0
   45.7800   29.8190   44.0950 C   0  0  0  0  0  0  0  0  0  0  0  0
   46.4320   29.4660   45.2570 C   0  0  0  0  0  0  0  0  0  0  0  0
   46.7750   30.5190   46.1510 C   0  0  0  0  0  0  0  0  0  0  0  0
   47.4220   30.1810   47.3090 C   0  0  0  0  0  0  0  0  0  0  0  0
   47.7840   31.1540   48.2190 C   0  0  0  0  0  0  0  0  0  0  0  0
   47.4840   32.4970   47.9450 C   0  0  0  0  0  0  0  0  0  0  0  0
   46.8180   32.7950   46.7440 C   0  0  0  0  0  0  0  0  0  0  0  0
   46.4670   31.8090   45.8630 C   0  0  0  0  0  0  0  0  0  0  0  0
   45.9410   33.6450   42.1420 O   0  0  0  0  0  0  0  0  0  0  0  0
   48.1520   32.3730   41.5410 O   0  0  0  0  0  0  0  0  0  0  0  0
   47.5280   33.7220   41.5570 P   0  0  1  0  0  0  0  0  0  0  0  0
   47.5570   34.2980   39.9640 O   0  0  0  0  0  0  0  0  0  0  0  0
   46.8080   33.3800   39.2070 C   0  0  0  0  0  0  0  0  0  0  0  0
   48.3970   34.7780   42.5320 O   0  0  0  0  0  0  0  0  0  0  0  0
   49.6150   35.3660   42.2360 C   0  0  0  0  0  0  0  0  0  0  0  0
   49.3250   36.4110   41.6290 O   0  0  0  0  0  0  0  0  0  0  0  0
   50.7070   34.5610   42.7300 N   0  0  0  0  0  0  0  0  0  0  0  0
   45.1683   36.0977   42.3029 H   0  0  0  0  0  0  0  0  0  0  0  0
   44.2670   36.0247   46.4382 H   0  0  0  0  0  0  0  0  0  0  0  0
   44.9700   31.3840   42.9145 H   0  0  0  0  0  0  0  0  0  0  0  0
   45.4928   29.0465   43.3665 H   0  0  0  0  0  0  0  0  0  0  0  0
   46.6762   28.4176   45.4832 H   0  0  0  0  0  0  0  0  0  0  0  0
   47.6552   29.1261   47.5160 H   0  0  0  0  0  0  0  0  0  0  0  0
   48.3024   30.8792   49.1495 H   0  0  0  0  0  0  0  0  0  0  0  0
   47.7622   33.2940   48.6503 H   0  0  0  0  0  0  0  0  0  0  0  0
   46.5742   33.8413   46.5077 H   0  0  0  0  0  0  0  0  0  0  0  0
   46.2597   32.7079   39.8835 H   0  0  0  0  0  0  0  0  0  0  0  0
   46.0933   33.9247   38.5726 H   0  0  0  0  0  0  0  0  0  0  0  0
   47.4851   32.7891   38.5726 H   0  0  0  0  0  0  0  0  0  0  0  0
   51.6795   34.8683   42.5861 H   0  0  0  0  0  0  0  0  0  0  0  0
   50.5135   33.6794   43.2263 H   0  0  0  0  0  0  0  0  0  0  0  0
  1  2  2  0
  1  6  1  0
  2  3  1  0
  3  7  1  0
  3  4  2  0
  5  4  1  0
  6  5  2  0
  7 16  2  0
  8  9  2  0
  8  7  1  0
  9 10  1  0
 10 11  2  0
 11 12  1  0
 12 13  2  0
 14 13  1  0
 15 14  2  0
 16 11  1  0
 16 15  1  0
 17  2  1  0
 19 18  2  0
 19 17  1  0
 19 22  1  0
 20 19  1  0
 21 20  1  0
 23 22  1  0
 23 25  1  0
 24 23  2  0
  1 26  1  0
  5 27  1  0
  8 28  1  0
  9 29  1  0
 10 30  1  0
 12 31  1  0
 13 32  1  0
 14 33  1  0
 15 34  1  0
 21 35  1  0
 21 36  1  0
 21 37  1  0
 25 38  1  0
 25 39  1  0
M  ISO  8  26  14  27  14  28  14  29  14  30  14  31  14  32  14  33  14
M  ISO  4  34  14  35   8  36   8  37   8
M  END
>  <minimizedAffinity>  (1) 
-5.79448462

>  <minimizedRMSD>  (1) 
0.68121016

$$$$
