
     RDKit          3D

 39 41  0  0  1  0  0  0  0  0999 V2000
   47.9050   34.4960   41.1840 C   0  0  1  0  0  0  0  0  0  0  0  0
   48.6420   35.8140   41.6520 C   0  0  0  0  0  0  0  0  0  0  0  0
   48.8760   34.5500   42.3050 C   0  0  2  0  0  0  0  0  0  0  0  0
   46.4420   34.5580   41.4710 C   0  0  0  0  0  0  0  0  0  0  0  0
   45.6790   34.3390   40.5360 O   0  0  0  0  0  0  0  0  0  0  0  0
   45.2890   36.0150   43.0720 C   0  0  0  0  0  0  0  0  0  0  0  0
   45.8710   34.8460   42.7350 C   0  0  0  0  0  0  0  0  0  0  0  0
   45.8990   33.8320   43.7490 C   0  0  0  0  0  0  0  0  0  0  0  0
   45.3660   34.0540   44.9730 N   0  0  0  0  0  0  0  0  0  0  0  0
   44.7930   35.2550   45.2530 C   0  0  0  0  0  0  0  0  0  0  0  0
   44.7600   36.1930   44.3320 N   0  0  0  0  0  0  0  0  0  0  0  0
   50.1420   34.0330   42.1100 O   0  0  0  0  0  0  0  0  0  0  0  0
   48.9180   32.0800   43.2720 O   0  0  0  0  0  0  0  0  0  0  0  0
   50.0480   32.3540   42.2900 P   0  0  2  0  0  0  0  0  0  0  0  0
   51.4550   31.6100   42.7330 O   0  0  0  0  0  0  0  0  0  0  0  0
   49.4440   31.7180   40.7890 O   0  0  0  0  0  0  0  0  0  0  0  0
   50.1690   31.6880   39.6200 C   0  0  0  0  0  0  0  0  0  0  0  0
   49.7430   31.8910   38.3150 C   0  0  0  0  0  0  0  0  0  0  0  0
   50.6430   31.8180   37.2730 C   0  0  0  0  0  0  0  0  0  0  0  0
   51.9490   31.5440   37.5330 N   0  0  0  0  0  0  0  0  0  0  0  0
   52.3560   31.3460   38.8100 C   0  0  0  0  0  0  0  0  0  0  0  0
   51.4840   31.4150   39.8500 N   0  0  0  0  0  0  0  0  0  0  0  0
   53.8020   31.0520   39.0000 C   0  0  0  0  0  0  0  0  0  0  0  0
   54.4600   31.0820   37.6150 C   0  0  0  0  0  0  0  0  0  0  0  0
   47.8055   33.8484   40.3004 H   0  0  0  0  0  0  0  0  0  0  0  0
   49.4231   36.2651   41.0224 H   0  0  0  0  0  0  0  0  0  0  0  0
   48.3283   36.8183   41.9729 H   0  0  0  0  0  0  0  0  0  0  0  0
   48.7992   34.1918   43.3422 H   0  0  0  0  0  0  0  0  0  0  0  0
   45.2362   36.8314   42.3366 H   0  0  0  0  0  0  0  0  0  0  0  0
   46.3610   32.8584   43.5283 H   0  0  0  0  0  0  0  0  0  0  0  0
   44.3587   35.4412   46.2463 H   0  0  0  0  0  0  0  0  0  0  0  0
   51.5148   31.5784   43.7207 H   0  0  0  0  0  0  0  0  0  0  0  0
   48.6846   32.1107   38.1113 H   0  0  0  0  0  0  0  0  0  0  0  0
   50.3066   31.9804   36.2384 H   0  0  0  0  0  0  0  0  0  0  0  0
   54.2585   31.8130   39.6501 H   0  0  0  0  0  0  0  0  0  0  0  0
   53.9402   30.0697   39.4753 H   0  0  0  0  0  0  0  0  0  0  0  0
   55.5529   31.1318   37.7293 H   0  0  0  0  0  0  0  0  0  0  0  0
   54.1904   30.1706   37.0612 H   0  0  0  0  0  0  0  0  0  0  0  0
   54.1086   31.9651   37.0612 H   0  0  0  0  0  0  0  0  0  0  0  0
  1  4  1  0
  1  2  1  0
  1  3  1  0
  2  3  1  0
  4  7  1  0
  5  4  2  0
  6 11  2  0
  7  6  1  0
  7  8  2  0
  8  9  1  0
  9 10  2  0
 11 10  1  0
 12 14  1  0
 12  3  1  0
 14 15  1  0
 14 13  2  0
 16 14  1  0
 17 22  1  0
 17 16  1  0
 18 17  2  0
 19 20  2  0
 19 18  1  0
 20 21  1  0
 21 23  1  0
 21 22  2  0
 24 23  1  0
  1 25  1  6
  2 26  1  0
  2 27  1  0
  3 28  1  1
  6 29  1  0
  8 30  1  0
 10 31  1  0
 15 32  1  0
 18 33  1  0
 19 34  1  0
 23 35  1  0
 23 36  1  0
 24 37  1  0
 24 38  1  0
 24 39  1  0
M  ISO  8  25  13  26  13  27  13  28  13  29  14  30  14  31  14  32   3
M  ISO  7  33  14  34  14  35   8  36   8  37   8  38   8  39   8
M  END
>  <minimizedAffinity>  (1) 
-5.2119875

>  <minimizedRMSD>  (1) 
0.535393655

$$$$
