
     RDKit          3D

 26 27  0  0  1  0  0  0  0  0999 V2000
   46.3900   30.8740   46.4730 C   0  0  0  0  0  0  0  0  0  0  0  0
   45.4070   31.0280   47.6180 C   0  0  1  0  0  0  0  0  0  0  0  0
   45.2190   29.8740   48.5250 C   0  0  0  0  0  0  0  0  0  0  0  0
   45.9860   31.0320   49.0010 C   0  0  2  0  0  0  0  0  0  0  0  0
   45.3260   31.8060   50.0420 N   0  0  0  0  0  0  0  0  0  0  0  0
   45.8460   33.1270   45.8830 C   0  0  0  0  0  0  0  0  0  0  0  0
   46.1600   31.9540   45.4450 C   0  0  0  0  0  0  0  0  0  0  0  0
   44.5550   36.1910   44.3290 C   0  0  0  0  0  0  0  0  0  0  0  0
   45.2060   36.2180   43.0920 C   0  0  0  0  0  0  0  0  0  0  0  0
   46.0650   35.1830   42.8170 C   0  0  0  0  0  0  0  0  0  0  0  0
   46.2440   34.2100   43.7260 N   0  0  0  0  0  0  0  0  0  0  0  0
   45.6170   34.1930   44.9080 C   0  0  0  0  0  0  0  0  0  0  0  0
   44.7940   35.1870   45.1660 N   0  0  0  0  0  0  0  0  0  0  0  0
   47.4162   30.9534   46.8611 H   0  0  0  0  0  0  0  0  0  0  0  0
   46.2436   29.8908   46.0019 H   0  0  0  0  0  0  0  0  0  0  0  0
   44.7349   31.6790   47.0397 H   0  0  0  0  0  0  0  0  0  0  0  0
   44.2245   29.6661   48.9465 H   0  0  0  0  0  0  0  0  0  0  0  0
   45.4183   28.7947   48.4511 H   0  0  0  0  0  0  0  0  0  0  0  0
   46.9950   31.2243   49.3946 H   0  0  0  0  0  0  0  0  0  0  0  0
   45.6210   31.4601   50.9662 H   0  0  0  0  0  0  0  0  0  0  0  0
   45.5849   32.7985   49.9482 H   0  0  0  0  0  0  0  0  0  0  0  0
   45.7530   33.3199   46.9619 H   0  0  0  0  0  0  0  0  0  0  0  0
   46.2558   31.7506   44.3682 H   0  0  0  0  0  0  0  0  0  0  0  0
   43.8532   36.9915   44.6061 H   0  0  0  0  0  0  0  0  0  0  0  0
   45.0375   37.0319   42.3715 H   0  0  0  0  0  0  0  0  0  0  0  0
   46.6034   35.1505   41.8583 H   0  0  0  0  0  0  0  0  0  0  0  0
  1  2  1  0
  2  3  1  0
  2  4  1  0
  3  4  1  0
  4  5  1  0
  7  6  2  0
  7  1  1  0
  8 13  2  0
  9  8  1  0
 10  9  2  0
 10 11  1  0
 11 12  2  0
 12 13  1  0
 12  6  1  0
  1 14  1  0
  1 15  1  0
  2 16  1  6
  3 17  1  0
  3 18  1  0
  4 19  1  6
  5 20  1  0
  5 21  1  0
  6 22  1  0
  7 23  1  0
  8 24  1  0
  9 25  1  0
 10 26  1  0
M  ISO  8  14   8  15   8  16  13  17  13  18  13  19  13  20   5  21   5
M  ISO  3  24  14  25  14  26  14
M  END
>  <minimizedAffinity>  (1) 
-4.52150059

>  <minimizedRMSD>  (1) 
0.861428678

$$$$
