
     RDKit          3D

 37 39  0  0  1  0  0  0  0  0999 V2000
   47.5710   30.3410   44.6550 C   0  0  0  0  0  0  0  0  0  0  0  0
   46.1080   30.5310   44.9460 C   0  0  1  0  0  0  0  0  0  0  0  0
   45.3880   29.3610   45.5360 C   0  0  0  0  0  0  0  0  0  0  0  0
   45.6040   30.5600   46.3400 C   0  0  1  0  0  0  0  0  0  0  0  0
   46.5750   30.7240   47.4570 C   0  0  0  0  0  0  0  0  0  0  0  0
   46.8170   32.1820   47.7060 C   0  0  0  0  0  0  0  0  0  0  0  0
   45.8150   32.5650   48.7640 C   0  0  0  0  0  0  0  0  0  0  0  0
   45.2340   31.3020   49.3240 C   0  0  0  0  0  0  0  0  0  0  0  0
   46.0360   30.1860   48.7370 C   0  0  0  0  0  0  0  0  0  0  0  0
   47.5870   32.5700   43.7840 C   0  0  0  0  0  0  0  0  0  0  0  0
   48.0310   31.3640   43.6520 C   0  0  0  0  0  0  0  0  0  0  0  0
   47.7360   34.6920   40.8040 C   0  0  0  0  0  0  0  0  0  0  0  0
   48.8400   35.5160   41.0470 C   0  0  0  0  0  0  0  0  0  0  0  0
   49.5140   35.3200   42.2270 C   0  0  0  0  0  0  0  0  0  0  0  0
   49.0810   34.3630   43.0660 N   0  0  0  0  0  0  0  0  0  0  0  0
   48.0240   33.5800   42.8270 C   0  0  0  0  0  0  0  0  0  0  0  0
   47.3550   33.7520   41.6870 N   0  0  0  0  0  0  0  0  0  0  0  0
   48.1461   30.4582   45.5853 H   0  0  0  0  0  0  0  0  0  0  0  0
   47.7304   29.3334   44.2435 H   0  0  0  0  0  0  0  0  0  0  0  0
   45.9935   31.2034   44.0830 H   0  0  0  0  0  0  0  0  0  0  0  0
   44.3754   29.1071   45.1892 H   0  0  0  0  0  0  0  0  0  0  0  0
   45.6146   28.2917   45.6599 H   0  0  0  0  0  0  0  0  0  0  0  0
   44.9111   31.1600   46.9482 H   0  0  0  0  0  0  0  0  0  0  0  0
   47.4884   30.1867   47.1619 H   0  0  0  0  0  0  0  0  0  0  0  0
   47.8430   32.3482   48.0661 H   0  0  0  0  0  0  0  0  0  0  0  0
   46.7045   32.7830   46.7916 H   0  0  0  0  0  0  0  0  0  0  0  0
   46.3133   33.1339   49.5628 H   0  0  0  0  0  0  0  0  0  0  0  0
   45.0224   33.1941   48.3326 H   0  0  0  0  0  0  0  0  0  0  0  0
   45.3165   31.2965   50.4209 H   0  0  0  0  0  0  0  0  0  0  0  0
   44.1664   31.2049   49.0775 H   0  0  0  0  0  0  0  0  0  0  0  0
   45.3980   29.3098   48.5490 H   0  0  0  0  0  0  0  0  0  0  0  0
   46.8374   29.8552   49.4140 H   0  0  0  0  0  0  0  0  0  0  0  0
   46.8954   32.8290   44.5992 H   0  0  0  0  0  0  0  0  0  0  0  0
   48.7193   31.0952   42.8372 H   0  0  0  0  0  0  0  0  0  0  0  0
   47.1673   34.8156   39.8706 H   0  0  0  0  0  0  0  0  0  0  0  0
   49.1536   36.2854   40.3261 H   0  0  0  0  0  0  0  0  0  0  0  0
   50.3908   35.9338   42.4808 H   0  0  0  0  0  0  0  0  0  0  0  0
  1  2  1  0
  2  3  1  0
  2  4  1  0
  3  4  1  0
  4  5  1  0
  5  6  1  0
  5  9  1  0
  6  7  1  0
  7  8  1  0
  9  8  1  0
 11 10  2  0
 11  1  1  0
 12 13  2  0
 12 17  1  0
 13 14  1  0
 14 15  2  0
 16 15  1  0
 16 10  1  0
 17 16  2  0
  1 18  1  0
  1 19  1  0
  2 20  1  6
  3 21  1  0
  3 22  1  0
  4 23  1  6
  5 24  1  0
  6 25  1  0
  6 26  1  0
  7 27  1  0
  7 28  1  0
  8 29  1  0
  8 30  1  0
  9 31  1  0
  9 32  1  0
 10 33  1  0
 11 34  1  0
 12 35  1  0
 13 36  1  0
 14 37  1  0
M  ISO  8  18   8  19   8  20  13  21  13  22  13  23  13  24  13  25  13
M  ISO  8  26  13  27  13  28  13  29  13  30  13  31  13  32  13  35  14
M  ISO  2  36  14  37  14
M  END
>  <minimizedAffinity>  (1) 
-4.26456881

>  <minimizedRMSD>  (1) 
3.50647759

$$$$
