
     RDKit          3D

 34 36  0  0  1  0  0  0  0  0999 V2000
   47.1420   31.1170   46.7810 C   0  0  0  0  0  0  0  0  0  0  0  0
   46.7880   31.6690   48.1270 C   0  0  1  0  0  0  0  0  0  0  0  0
   46.2230   30.7070   49.1150 C   0  0  0  0  0  0  0  0  0  0  0  0
   47.5530   31.2420   49.3240 C   0  0  1  0  0  0  0  0  0  0  0  0
   48.8120   30.5020   49.1110 C   0  0  0  0  0  0  0  0  0  0  0  0
   49.6350   30.2610   50.4050 C   0  0  0  0  0  0  0  0  0  0  0  0
   50.1150   31.2810   49.4290 C   0  0  0  0  0  0  0  0  0  0  0  0
   46.0700   33.0870   46.0450 C   0  0  0  0  0  0  0  0  0  0  0  0
   46.8790   32.1620   45.7040 C   0  0  0  0  0  0  0  0  0  0  0  0
   44.4960   35.9910   44.4240 C   0  0  0  0  0  0  0  0  0  0  0  0
   45.0860   36.0250   43.1690 C   0  0  0  0  0  0  0  0  0  0  0  0
   46.0260   35.0490   42.9230 C   0  0  0  0  0  0  0  0  0  0  0  0
   46.3250   34.1350   43.8700 N   0  0  0  0  0  0  0  0  0  0  0  0
   45.7370   34.1240   45.0790 C   0  0  0  0  0  0  0  0  0  0  0  0
   44.8290   35.0640   45.3270 N   0  0  0  0  0  0  0  0  0  0  0  0
   46.6200   35.0790   41.6670 O   0  0  0  0  0  0  0  0  0  0  0  0
   48.2068   30.8413   46.7688 H   0  0  0  0  0  0  0  0  0  0  0  0
   46.5245   30.2289   46.5810 H   0  0  0  0  0  0  0  0  0  0  0  0
   46.5088   32.6434   47.6997 H   0  0  0  0  0  0  0  0  0  0  0  0
   45.3975   31.0176   49.7724 H   0  0  0  0  0  0  0  0  0  0  0  0
   45.7964   29.6949   49.0535 H   0  0  0  0  0  0  0  0  0  0  0  0
   48.0192   31.7100   50.2036 H   0  0  0  0  0  0  0  0  0  0  0  0
   48.4438   29.8979   48.2687 H   0  0  0  0  0  0  0  0  0  0  0  0
   49.2318   30.5817   51.3769 H   0  0  0  0  0  0  0  0  0  0  0  0
   50.0849   29.3758   50.8783 H   0  0  0  0  0  0  0  0  0  0  0  0
   51.0240   31.0885   48.8403 H   0  0  0  0  0  0  0  0  0  0  0  0
   50.3778   32.3470   49.4961 H   0  0  0  0  0  0  0  0  0  0  0  0
   45.1267   32.6002   46.3336 H   0  0  0  0  0  0  0  0  0  0  0  0
   46.6064   33.6277   46.8386 H   0  0  0  0  0  0  0  0  0  0  0  0
   46.4626   31.6498   44.8241 H   0  0  0  0  0  0  0  0  0  0  0  0
   47.8436   32.6513   45.5038 H   0  0  0  0  0  0  0  0  0  0  0  0
   43.7368   36.7442   44.6817 H   0  0  0  0  0  0  0  0  0  0  0  0
   44.8199   36.7834   42.4180 H   0  0  0  0  0  0  0  0  0  0  0  0
   47.3040   34.4048   41.4267 H   0  0  0  0  0  0  0  0  0  0  0  0
  1  2  1  0
  2  3  1  0
  2  4  1  0
  3  4  1  0
  5  4  1  0
  5  7  1  0
  5  6  1  0
  7  6  1  0
  9  8  1  0
  9  1  1  0
 10 15  2  0
 11 10  1  0
 12 11  2  0
 12 13  1  0
 13 14  2  0
 14 15  1  0
 14  8  1  0
 16 12  1  0
  1 17  1  0
  1 18  1  0
  2 19  1  6
  3 20  1  0
  3 21  1  0
  4 22  1  1
  5 23  1  0
  6 24  1  0
  6 25  1  0
  7 26  1  0
  7 27  1  0
  8 28  1  0
  8 29  1  0
  9 30  1  0
  9 31  1  0
 10 32  1  0
 11 33  1  0
 16 34  1  0
M  ISO  8  17   8  18   8  19  13  20  13  21  13  22  13  23  13  24  13
M  ISO  8  25  13  26  13  27  13  28   8  29   8  30   8  31   8  32  14
M  ISO  2  33  14  34   3
M  END
>  <minimizedAffinity>  (1) 
-4.80089426

>  <minimizedRMSD>  (1) 
0.15837203

$$$$
