
     RDKit          3D

 36 38  0  0  1  0  0  0  0  0999 V2000
   47.8870   34.4880   41.1580 C   0  0  1  0  0  0  0  0  0  0  0  0
   48.6340   35.7970   41.6420 C   0  0  0  0  0  0  0  0  0  0  0  0
   48.8640   34.5220   42.2730 C   0  0  2  0  0  0  0  0  0  0  0  0
   46.4270   34.5520   41.4540 C   0  0  0  0  0  0  0  0  0  0  0  0
   45.6550   34.3390   40.5260 O   0  0  0  0  0  0  0  0  0  0  0  0
   45.2870   36.0000   43.0720 C   0  0  0  0  0  0  0  0  0  0  0  0
   45.8640   34.8400   42.7220 C   0  0  0  0  0  0  0  0  0  0  0  0
   45.8960   33.8280   43.7370 C   0  0  0  0  0  0  0  0  0  0  0  0
   45.3720   34.0500   44.9650 N   0  0  0  0  0  0  0  0  0  0  0  0
   44.8020   35.2540   45.2450 C   0  0  0  0  0  0  0  0  0  0  0  0
   44.7650   36.1920   44.3260 N   0  0  0  0  0  0  0  0  0  0  0  0
   50.1260   33.9980   42.0640 O   0  0  0  0  0  0  0  0  0  0  0  0
   48.9340   32.0880   43.3220 O   0  0  0  0  0  0  0  0  0  0  0  0
   50.0400   32.3290   42.3060 P   0  0  2  0  0  0  0  0  0  0  0  0
   51.4590   31.6030   42.7430 O   0  0  0  0  0  0  0  0  0  0  0  0
   49.4060   31.6370   40.8420 O   0  0  0  0  0  0  0  0  0  0  0  0
   50.0670   31.6580   39.6330 C   0  0  0  0  0  0  0  0  0  0  0  0
   49.5580   31.8640   38.3590 C   0  0  0  0  0  0  0  0  0  0  0  0
   50.3960   31.8480   37.2700 C   0  0  0  0  0  0  0  0  0  0  0  0
   51.7350   31.6260   37.4490 N   0  0  0  0  0  0  0  0  0  0  0  0
   52.2120   31.4250   38.7020 C   0  0  0  0  0  0  0  0  0  0  0  0
   51.3970   31.4400   39.7850 N   0  0  0  0  0  0  0  0  0  0  0  0
   53.6800   31.1880   38.8400 C   0  0  0  0  0  0  0  0  0  0  0  0
   47.7793   33.8538   40.2657 H   0  0  0  0  0  0  0  0  0  0  0  0
   49.4140   36.2537   41.0151 H   0  0  0  0  0  0  0  0  0  0  0  0
   48.3277   36.7980   41.9800 H   0  0  0  0  0  0  0  0  0  0  0  0
   48.7912   34.1502   43.3057 H   0  0  0  0  0  0  0  0  0  0  0  0
   45.2313   36.8158   42.3362 H   0  0  0  0  0  0  0  0  0  0  0  0
   46.3547   32.8535   43.5137 H   0  0  0  0  0  0  0  0  0  0  0  0
   44.3726   35.4414   46.2402 H   0  0  0  0  0  0  0  0  0  0  0  0
   51.5226   31.5705   43.7304 H   0  0  0  0  0  0  0  0  0  0  0  0
   48.4812   32.0405   38.2202 H   0  0  0  0  0  0  0  0  0  0  0  0
   49.9930   32.0127   36.2598 H   0  0  0  0  0  0  0  0  0  0  0  0
   53.9458   31.1451   39.9065 H   0  0  0  0  0  0  0  0  0  0  0  0
   53.9446   30.2355   38.3576 H   0  0  0  0  0  0  0  0  0  0  0  0
   54.2309   32.0088   38.3576 H   0  0  0  0  0  0  0  0  0  0  0  0
  1  4  1  0
  1  2  1  0
  1  3  1  0
  2  3  1  0
  4  7  1  0
  5  4  2  0
  6 11  2  0
  7  6  1  0
  7  8  2  0
  8  9  1  0
  9 10  2  0
 11 10  1  0
 12  3  1  0
 12 14  1  0
 14 15  1  0
 14 13  2  0
 16 14  1  0
 17 22  1  0
 17 16  1  0
 18 17  2  0
 19 20  2  0
 19 18  1  0
 20 21  1  0
 21 23  1  0
 21 22  2  0
  1 24  1  6
  2 25  1  0
  2 26  1  0
  3 27  1  1
  6 28  1  0
  8 29  1  0
 10 30  1  0
 15 31  1  0
 18 32  1  0
 19 33  1  0
 23 34  1  0
 23 35  1  0
 23 36  1  0
M  ISO  8  24  13  25  13  26  13  27  13  28  14  29  14  30  14  31   3
M  ISO  5  32  14  33  14  34   8  35   8  36   8
M  END
>  <minimizedAffinity>  (1) 
-5.15255308

>  <minimizedRMSD>  (1) 
0.577486515

$$$$
