
     RDKit          3D

 35 37  0  0  1  0  0  0  0  0999 V2000
   47.8760   34.4850   41.1590 C   0  0  1  0  0  0  0  0  0  0  0  0
   48.6260   35.7920   41.6420 C   0  0  0  0  0  0  0  0  0  0  0  0
   48.8540   34.5160   42.2720 C   0  0  2  0  0  0  0  0  0  0  0  0
   46.4160   34.5520   41.4540 C   0  0  0  0  0  0  0  0  0  0  0  0
   45.6440   34.3410   40.5290 O   0  0  0  0  0  0  0  0  0  0  0  0
   45.2810   36.0000   43.0770 C   0  0  0  0  0  0  0  0  0  0  0  0
   45.8550   34.8390   42.7240 C   0  0  0  0  0  0  0  0  0  0  0  0
   45.8870   33.8250   43.7400 C   0  0  0  0  0  0  0  0  0  0  0  0
   45.3680   34.0460   44.9670 N   0  0  0  0  0  0  0  0  0  0  0  0
   44.8000   35.2480   45.2570 C   0  0  0  0  0  0  0  0  0  0  0  0
   44.7630   36.1890   44.3340 N   0  0  0  0  0  0  0  0  0  0  0  0
   50.1160   33.9900   42.0640 O   0  0  0  0  0  0  0  0  0  0  0  0
   48.9250   32.0790   43.3220 O   0  0  0  0  0  0  0  0  0  0  0  0
   50.0260   32.3220   42.3020 P   0  0  2  0  0  0  0  0  0  0  0  0
   51.4460   31.5900   42.7310 O   0  0  0  0  0  0  0  0  0  0  0  0
   49.3840   31.6330   40.8410 O   0  0  0  0  0  0  0  0  0  0  0  0
   50.0350   31.6460   39.6310 C   0  0  0  0  0  0  0  0  0  0  0  0
   49.5160   31.8270   38.3580 C   0  0  0  0  0  0  0  0  0  0  0  0
   50.3510   31.8070   37.2550 C   0  0  0  0  0  0  0  0  0  0  0  0
   51.6800   31.6080   37.4360 N   0  0  0  0  0  0  0  0  0  0  0  0
   52.1800   31.4320   38.6830 C   0  0  0  0  0  0  0  0  0  0  0  0
   51.3760   31.4480   39.7890 N   0  0  0  0  0  0  0  0  0  0  0  0
   53.6280   31.2200   38.8300 C   0  0  0  0  0  0  0  0  0  0  0  0
   54.3370   31.5010   37.8290 O   0  0  0  0  0  0  0  0  0  0  0  0
   47.7660   33.8507   40.2670 H   0  0  0  0  0  0  0  0  0  0  0  0
   49.4061   36.2473   41.0142 H   0  0  0  0  0  0  0  0  0  0  0  0
   48.3223   36.7935   41.9808 H   0  0  0  0  0  0  0  0  0  0  0  0
   48.7812   34.1427   43.3042 H   0  0  0  0  0  0  0  0  0  0  0  0
   45.2245   36.8175   42.3431 H   0  0  0  0  0  0  0  0  0  0  0  0
   46.3429   32.8496   43.5147 H   0  0  0  0  0  0  0  0  0  0  0  0
   44.3747   35.4334   46.2544 H   0  0  0  0  0  0  0  0  0  0  0  0
   51.5141   31.5549   43.7180 H   0  0  0  0  0  0  0  0  0  0  0  0
   48.4359   31.9872   38.2245 H   0  0  0  0  0  0  0  0  0  0  0  0
   49.9419   31.9507   36.2441 H   0  0  0  0  0  0  0  0  0  0  0  0
   54.0669   30.8371   39.7631 H   0  0  0  0  0  0  0  0  0  0  0  0
  1  4  1  0
  1  2  1  0
  1  3  1  0
  2  3  1  0
  4  7  1  0
  5  4  2  0
  6 11  2  0
  7  6  1  0
  7  8  2  0
  8  9  1  0
  9 10  2  0
 11 10  1  0
 12  3  1  0
 12 14  1  0
 14 15  1  0
 14 13  2  0
 16 14  1  0
 17 22  1  0
 17 16  1  0
 18 17  2  0
 19 20  2  0
 19 18  1  0
 20 21  1  0
 21 23  1  0
 21 22  2  0
 24 23  2  0
  1 25  1  6
  2 26  1  0
  2 27  1  0
  3 28  1  1
  6 29  1  0
  8 30  1  0
 10 31  1  0
 15 32  1  0
 18 33  1  0
 19 34  1  0
 23 35  1  0
M  ISO  8  25  13  26  13  27  13  28  13  29  14  30  14  31  14  32   3
M  ISO  3  33  14  34  14  35   6
M  END
>  <minimizedAffinity>  (1) 
-5.10878181

>  <minimizedRMSD>  (1) 
0.673904121

$$$$
