
     RDKit          3D

 56 60  0  0  1  0  0  0  0  0999 V2000
   47.1650   31.1240   46.9160 C   0  0  0  0  0  0  0  0  0  0  0  0
   46.7830   31.6250   48.2630 C   0  0  1  0  0  0  0  0  0  0  0  0
   46.2990   30.5850   49.2140 C   0  0  0  0  0  0  0  0  0  0  0  0
   47.5720   31.2580   49.4520 C   0  0  1  0  0  0  0  0  0  0  0  0
   48.8830   30.5740   49.2340 C   0  0  2  0  0  0  0  0  0  0  0  0
   49.6100   30.1630   50.5400 C   0  0  0  0  0  0  0  0  0  0  0  0
   50.1370   31.2780   49.7610 C   0  0  1  0  0  0  0  0  0  0  0  0
   51.2490   31.2020   48.8710 N   0  0  0  0  0  0  0  0  0  0  0  0
   51.6310   29.9230   48.4090 C   0  0  0  0  0  0  0  0  0  0  0  0
   52.9690   29.4570   48.9620 C   0  0  0  0  0  0  0  0  0  0  0  0
   54.0860   30.3880   48.5540 C   0  0  0  0  0  0  0  0  0  0  0  0
   53.6040   31.8080   48.5500 C   0  0  0  0  0  0  0  0  0  0  0  0
   52.3480   31.9870   49.3640 C   0  0  0  0  0  0  0  0  0  0  0  0
   46.0710   33.0710   46.1670 C   0  0  0  0  0  0  0  0  0  0  0  0
   46.9090   32.1750   45.8570 C   0  0  0  0  0  0  0  0  0  0  0  0
   44.5380   35.9240   44.4030 C   0  0  0  0  0  0  0  0  0  0  0  0
   45.1730   35.9000   43.1650 C   0  0  0  0  0  0  0  0  0  0  0  0
   46.1010   34.9130   42.9750 C   0  0  0  0  0  0  0  0  0  0  0  0
   46.3550   34.0240   43.9700 N   0  0  0  0  0  0  0  0  0  0  0  0
   45.7210   34.0750   45.1590 C   0  0  0  0  0  0  0  0  0  0  0  0
   44.8250   35.0280   45.3430 N   0  0  0  0  0  0  0  0  0  0  0  0
   46.8420   34.7670   41.7320 C   0  0  0  0  0  0  0  0  0  0  0  0
   48.0480   35.3540   41.4780 C   0  0  0  0  0  0  0  0  0  0  0  0
   48.7390   35.2060   40.2890 C   0  0  0  0  0  0  0  0  0  0  0  0
   48.2080   34.4300   39.2840 C   0  0  0  0  0  0  0  0  0  0  0  0
   46.9950   33.8150   39.4880 C   0  0  0  0  0  0  0  0  0  0  0  0
   46.3550   34.0000   40.6940 C   0  0  0  0  0  0  0  0  0  0  0  0
   48.2345   30.8668   46.9172 H   0  0  0  0  0  0  0  0  0  0  0  0
   46.5571   30.2367   46.6853 H   0  0  0  0  0  0  0  0  0  0  0  0
   46.4329   32.5864   47.8591 H   0  0  0  0  0  0  0  0  0  0  0  0
   45.4367   30.7929   49.8645 H   0  0  0  0  0  0  0  0  0  0  0  0
   45.9778   29.5368   49.1236 H   0  0  0  0  0  0  0  0  0  0  0  0
   47.9873   31.7821   50.3254 H   0  0  0  0  0  0  0  0  0  0  0  0
   48.5896   30.1080   48.2818 H   0  0  0  0  0  0  0  0  0  0  0  0
   49.1344   30.3525   51.5136 H   0  0  0  0  0  0  0  0  0  0  0  0
   50.0325   29.2229   50.9244 H   0  0  0  0  0  0  0  0  0  0  0  0
   50.4500   32.2765   50.1003 H   0  0  0  0  0  0  0  0  0  0  0  0
   50.8587   29.1990   48.7080 H   0  0  0  0  0  0  0  0  0  0  0  0
   51.7364   29.9901   47.3161 H   0  0  0  0  0  0  0  0  0  0  0  0
   52.9116   29.4259   50.0601 H   0  0  0  0  0  0  0  0  0  0  0  0
   53.1838   28.4579   48.5549 H   0  0  0  0  0  0  0  0  0  0  0  0
   54.9189   30.2894   49.2657 H   0  0  0  0  0  0  0  0  0  0  0  0
   54.4225   30.1213   47.5413 H   0  0  0  0  0  0  0  0  0  0  0  0
   54.3922   32.4505   48.9695 H   0  0  0  0  0  0  0  0  0  0  0  0
   53.3736   32.0827   47.5101 H   0  0  0  0  0  0  0  0  0  0  0  0
   52.0610   33.0486   49.3388 H   0  0  0  0  0  0  0  0  0  0  0  0
   52.5650   31.6476   50.3876 H   0  0  0  0  0  0  0  0  0  0  0  0
   45.6166   33.0955   47.1684 H   0  0  0  0  0  0  0  0  0  0  0  0
   47.4181   32.1607   44.8820 H   0  0  0  0  0  0  0  0  0  0  0  0
   43.7844   36.6987   44.6080 H   0  0  0  0  0  0  0  0  0  0  0  0
   44.9411   36.6356   42.3808 H   0  0  0  0  0  0  0  0  0  0  0  0
   48.4957   35.9804   42.2636 H   0  0  0  0  0  0  0  0  0  0  0  0
   49.7084   35.7062   40.1473 H   0  0  0  0  0  0  0  0  0  0  0  0
   48.7454   34.3037   38.3325 H   0  0  0  0  0  0  0  0  0  0  0  0
   46.5448   33.1881   38.7042 H   0  0  0  0  0  0  0  0  0  0  0  0
   45.3860   33.5001   40.8396 H   0  0  0  0  0  0  0  0  0  0  0  0
  1  2  1  0
  2  3  1  0
  2  4  1  0
  3  4  1  0
  5  4  1  0
  5  7  1  0
  5  6  1  0
  7  6  1  0
  8 13  1  0
  8  7  1  0
  9  8  1  0
  9 10  1  0
 11 10  1  0
 12 11  1  0
 12 13  1  0
 15 14  2  0
 15  1  1  0
 16 21  2  0
 17 16  1  0
 18 17  2  0
 18 19  1  0
 19 20  2  0
 20 21  1  0
 20 14  1  0
 22 18  1  0
 23 22  2  0
 24 23  1  0
 25 26  1  0
 25 24  2  0
 26 27  2  0
 27 22  1  0
  1 28  1  0
  1 29  1  0
  2 30  1  6
  3 31  1  0
  3 32  1  0
  4 33  1  1
  5 34  1  6
  6 35  1  0
  6 36  1  0
  7 37  1  1
  9 38  1  0
  9 39  1  0
 10 40  1  0
 10 41  1  0
 11 42  1  0
 11 43  1  0
 12 44  1  0
 12 45  1  0
 13 46  1  0
 13 47  1  0
 14 48  1  0
 15 49  1  0
 16 50  1  0
 17 51  1  0
 23 52  1  0
 24 53  1  0
 25 54  1  0
 26 55  1  0
 27 56  1  0
M  ISO  8  28   8  29   8  30  13  31  13  32  13  33  13  34  13  35  13
M  ISO  8  36  13  37  13  38  13  39  13  40  13  41  13  42  13  43  13
M  ISO  8  44  13  45  13  46  13  47  13  50  14  51  14  52  14  53  14
M  ISO  3  54  14  55  14  56  14
M  END
>  <minimizedAffinity>  (1) 
-6.44042253

>  <minimizedRMSD>  (1) 
0.798406065

$$$$
