
     RDKit          3D

 51 55  0  0  1  0  0  0  0  0999 V2000
   47.2840   31.1520   46.9350 C   0  0  0  0  0  0  0  0  0  0  0  0
   46.9140   31.6680   48.2760 C   0  0  1  0  0  0  0  0  0  0  0  0
   46.3720   30.6510   49.2210 C   0  0  0  0  0  0  0  0  0  0  0  0
   47.6710   31.2560   49.4730 C   0  0  1  0  0  0  0  0  0  0  0  0
   48.9570   30.5180   49.2660 C   0  0  2  0  0  0  0  0  0  0  0  0
   49.6270   30.0450   50.5820 C   0  0  0  0  0  0  0  0  0  0  0  0
   50.2230   31.1610   49.8380 C   0  0  1  0  0  0  0  0  0  0  0  0
   52.4480   33.0020   49.8450 F   0  0  0  0  0  0  0  0  0  0  0  0
   52.5540   31.9350   49.0190 C   0  0  0  0  0  0  0  0  0  0  0  0
   51.4580   31.0990   49.0640 C   0  0  0  0  0  0  0  0  0  0  0  0
   51.5300   29.9820   48.2200 C   0  0  0  0  0  0  0  0  0  0  0  0
   52.5940   29.7190   47.4050 C   0  0  0  0  0  0  0  0  0  0  0  0
   53.6740   30.5710   47.3800 C   0  0  0  0  0  0  0  0  0  0  0  0
   53.6290   31.6730   48.1980 C   0  0  0  0  0  0  0  0  0  0  0  0
   46.1390   33.0690   46.1740 C   0  0  0  0  0  0  0  0  0  0  0  0
   46.9810   32.1780   45.8640 C   0  0  0  0  0  0  0  0  0  0  0  0
   44.5380   35.8750   44.4010 C   0  0  0  0  0  0  0  0  0  0  0  0
   45.1720   35.8600   43.1590 C   0  0  0  0  0  0  0  0  0  0  0  0
   46.1160   34.8960   42.9750 C   0  0  0  0  0  0  0  0  0  0  0  0
   46.3960   34.0140   43.9700 N   0  0  0  0  0  0  0  0  0  0  0  0
   45.7650   34.0540   45.1590 C   0  0  0  0  0  0  0  0  0  0  0  0
   44.8470   34.9900   45.3400 N   0  0  0  0  0  0  0  0  0  0  0  0
   46.8560   34.7590   41.7290 C   0  0  0  0  0  0  0  0  0  0  0  0
   48.0560   35.3480   41.4640 C   0  0  0  0  0  0  0  0  0  0  0  0
   48.7390   35.2020   40.2730 C   0  0  0  0  0  0  0  0  0  0  0  0
   48.2090   34.4230   39.2670 C   0  0  0  0  0  0  0  0  0  0  0  0
   47.0050   33.8030   39.4720 C   0  0  0  0  0  0  0  0  0  0  0  0
   46.3670   33.9840   40.6820 C   0  0  0  0  0  0  0  0  0  0  0  0
   48.3596   30.9222   46.9208 H   0  0  0  0  0  0  0  0  0  0  0  0
   46.6969   30.2444   46.7312 H   0  0  0  0  0  0  0  0  0  0  0  0
   46.6159   32.6464   47.8712 H   0  0  0  0  0  0  0  0  0  0  0  0
   45.5154   30.9000   49.8646 H   0  0  0  0  0  0  0  0  0  0  0  0
   46.0002   29.6203   49.1243 H   0  0  0  0  0  0  0  0  0  0  0  0
   48.1012   31.7510   50.3561 H   0  0  0  0  0  0  0  0  0  0  0  0
   48.6718   30.0846   48.2960 H   0  0  0  0  0  0  0  0  0  0  0  0
   49.1321   30.2321   51.5464 H   0  0  0  0  0  0  0  0  0  0  0  0
   49.9988   29.0797   50.9561 H   0  0  0  0  0  0  0  0  0  0  0  0
   50.5397   32.1629   50.1635 H   0  0  0  0  0  0  0  0  0  0  0  0
   50.6837   29.2793   48.2138 H   0  0  0  0  0  0  0  0  0  0  0  0
   52.5874   28.8232   46.7666 H   0  0  0  0  0  0  0  0  0  0  0  0
   54.5399   30.3769   46.7300 H   0  0  0  0  0  0  0  0  0  0  0  0
   54.4799   32.3701   48.1978 H   0  0  0  0  0  0  0  0  0  0  0  0
   45.6988   33.1026   47.1815 H   0  0  0  0  0  0  0  0  0  0  0  0
   47.4640   32.1502   44.8761 H   0  0  0  0  0  0  0  0  0  0  0  0
   43.7683   36.6337   44.6058 H   0  0  0  0  0  0  0  0  0  0  0  0
   44.9233   36.5867   42.3715 H   0  0  0  0  0  0  0  0  0  0  0  0
   48.5073   35.9771   42.2454 H   0  0  0  0  0  0  0  0  0  0  0  0
   49.7053   35.7069   40.1271 H   0  0  0  0  0  0  0  0  0  0  0  0
   48.7448   34.3011   38.3141 H   0  0  0  0  0  0  0  0  0  0  0  0
   46.5563   33.1743   38.6888 H   0  0  0  0  0  0  0  0  0  0  0  0
   45.4012   33.4786   40.8297 H   0  0  0  0  0  0  0  0  0  0  0  0
  1  2  1  0
  2  3  1  0
  2  4  1  0
  3  4  1  0
  5  4  1  0
  5  7  1  0
  5  6  1  0
  7  6  1  0
  9 10  2  0
  9  8  1  0
 10  7  1  0
 11 10  1  0
 12 11  2  0
 13 12  1  0
 13 14  2  0
 14  9  1  0
 16 15  2  0
 16  1  1  0
 17 22  2  0
 18 17  1  0
 19 18  2  0
 19 20  1  0
 20 21  2  0
 21 22  1  0
 21 15  1  0
 23 19  1  0
 24 23  2  0
 25 24  1  0
 26 27  1  0
 26 25  2  0
 27 28  2  0
 28 23  1  0
  1 29  1  0
  1 30  1  0
  2 31  1  6
  3 32  1  0
  3 33  1  0
  4 34  1  1
  5 35  1  6
  6 36  1  0
  6 37  1  0
  7 38  1  1
 11 39  1  0
 12 40  1  0
 13 41  1  0
 14 42  1  0
 15 43  1  0
 16 44  1  0
 17 45  1  0
 18 46  1  0
 24 47  1  0
 25 48  1  0
 26 49  1  0
 27 50  1  0
 28 51  1  0
M  ISO  8  29   8  30   8  31  13  32  13  33  13  34  13  35  13  36  13
M  ISO  8  37  13  38  13  39  14  40  14  41  14  42  14  45  14  46  14
M  ISO  5  47  14  48  14  49  14  50  14  51  14
M  END
>  <minimizedAffinity>  (1) 
-6.75174236

>  <minimizedRMSD>  (1) 
1.01228023

$$$$
