
     RDKit          3D

 53 57  0  0  1  0  0  0  0  0999 V2000
   47.1240   31.0520   46.8850 C   0  0  0  0  0  0  0  0  0  0  0  0
   46.6770   31.5000   48.2300 C   0  0  1  0  0  0  0  0  0  0  0  0
   46.4120   30.3990   49.2000 C   0  0  0  0  0  0  0  0  0  0  0  0
   47.5390   31.3020   49.4090 C   0  0  1  0  0  0  0  0  0  0  0  0
   48.9490   30.8600   49.1800 C   0  0  2  0  0  0  0  0  0  0  0  0
   49.5750   30.1110   50.3830 C   0  0  0  0  0  0  0  0  0  0  0  0
   50.0310   31.4670   50.0780 C   0  0  1  0  0  0  0  0  0  0  0  0
   51.2010   31.8100   49.3380 N   0  0  0  0  0  0  0  0  0  0  0  0
   52.0550   32.7310   50.0200 C   0  0  0  0  0  0  0  0  0  0  0  0
   53.3900   32.0010   50.2080 C   0  0  0  0  0  0  0  0  0  0  0  0
   53.4350   31.2080   48.8940 C   0  0  0  0  0  0  0  0  0  0  0  0
   51.9820   30.7160   48.8750 C   0  0  0  0  0  0  0  0  0  0  0  0
   46.0360   33.0180   46.1730 C   0  0  0  0  0  0  0  0  0  0  0  0
   46.8770   32.1270   45.8520 C   0  0  0  0  0  0  0  0  0  0  0  0
   44.5390   35.9230   44.4690 C   0  0  0  0  0  0  0  0  0  0  0  0
   45.2020   35.9460   43.2460 C   0  0  0  0  0  0  0  0  0  0  0  0
   46.1290   34.9760   43.0510 C   0  0  0  0  0  0  0  0  0  0  0  0
   46.3700   34.0490   44.0160 N   0  0  0  0  0  0  0  0  0  0  0  0
   45.7120   34.0530   45.1890 C   0  0  0  0  0  0  0  0  0  0  0  0
   44.8090   34.9980   45.3810 N   0  0  0  0  0  0  0  0  0  0  0  0
   46.9080   34.8700   41.8160 C   0  0  0  0  0  0  0  0  0  0  0  0
   48.1180   35.4840   41.6080 C   0  0  0  0  0  0  0  0  0  0  0  0
   48.8470   35.3800   40.4420 C   0  0  0  0  0  0  0  0  0  0  0  0
   48.3560   34.6230   39.4100 C   0  0  0  0  0  0  0  0  0  0  0  0
   47.1540   33.9840   39.5520 C   0  0  0  0  0  0  0  0  0  0  0  0
   46.4640   34.1230   40.7450 C   0  0  0  0  0  0  0  0  0  0  0  0
   48.1998   30.8253   46.9195 H   0  0  0  0  0  0  0  0  0  0  0  0
   46.5526   30.1550   46.6041 H   0  0  0  0  0  0  0  0  0  0  0  0
   46.1493   32.3753   47.8232 H   0  0  0  0  0  0  0  0  0  0  0  0
   45.5362   30.4494   49.8637 H   0  0  0  0  0  0  0  0  0  0  0  0
   46.2923   29.3081   49.1253 H   0  0  0  0  0  0  0  0  0  0  0  0
   47.8627   31.9115   50.2656 H   0  0  0  0  0  0  0  0  0  0  0  0
   48.8292   30.7110   48.0967 H   0  0  0  0  0  0  0  0  0  0  0  0
   48.9736   29.9260   51.2853 H   0  0  0  0  0  0  0  0  0  0  0  0
   50.0747   29.1396   50.5118 H   0  0  0  0  0  0  0  0  0  0  0  0
   50.1843   32.3060   50.7727 H   0  0  0  0  0  0  0  0  0  0  0  0
   52.1970   33.6402   49.4173 H   0  0  0  0  0  0  0  0  0  0  0  0
   51.6257   33.0447   50.9829 H   0  0  0  0  0  0  0  0  0  0  0  0
   54.2328   32.7029   50.2923 H   0  0  0  0  0  0  0  0  0  0  0  0
   53.4664   31.3947   51.1226 H   0  0  0  0  0  0  0  0  0  0  0  0
   53.6667   31.8492   48.0308 H   0  0  0  0  0  0  0  0  0  0  0  0
   54.2052   30.4248   48.8350 H   0  0  0  0  0  0  0  0  0  0  0  0
   51.6845   30.4372   47.8534 H   0  0  0  0  0  0  0  0  0  0  0  0
   51.8463   29.8242   49.5046 H   0  0  0  0  0  0  0  0  0  0  0  0
   45.5613   33.0145   47.1653 H   0  0  0  0  0  0  0  0  0  0  0  0
   47.3953   32.1352   44.8818 H   0  0  0  0  0  0  0  0  0  0  0  0
   43.7765   36.6862   44.6838 H   0  0  0  0  0  0  0  0  0  0  0  0
   44.9866   36.7071   42.4816 H   0  0  0  0  0  0  0  0  0  0  0  0
   48.5319   36.0972   42.4221 H   0  0  0  0  0  0  0  0  0  0  0  0
   49.8118   35.8987   40.3412 H   0  0  0  0  0  0  0  0  0  0  0  0
   48.9248   34.5296   38.4731 H   0  0  0  0  0  0  0  0  0  0  0  0
   46.7440   33.3722   38.7349 H   0  0  0  0  0  0  0  0  0  0  0  0
   45.4993   33.6039   40.8447 H   0  0  0  0  0  0  0  0  0  0  0  0
  1  2  1  0
  2  3  1  0
  2  4  1  0
  3  4  1  0
  5  4  1  0
  5  7  1  0
  5  6  1  0
  7  6  1  0
  8  9  1  0
  8  7  1  0
  9 10  1  0
 11 10  1  0
 12 11  1  0
 12  8  1  0
 14 13  2  0
 14  1  1  0
 15 20  2  0
 16 15  1  0
 17 16  2  0
 17 18  1  0
 18 19  2  0
 19 20  1  0
 19 13  1  0
 21 17  1  0
 22 21  2  0
 23 22  1  0
 24 25  1  0
 24 23  2  0
 25 26  2  0
 26 21  1  0
  1 27  1  0
  1 28  1  0
  2 29  1  6
  3 30  1  0
  3 31  1  0
  4 32  1  1
  5 33  1  6
  6 34  1  0
  6 35  1  0
  7 36  1  1
  9 37  1  0
  9 38  1  0
 10 39  1  0
 10 40  1  0
 11 41  1  0
 11 42  1  0
 12 43  1  0
 12 44  1  0
 13 45  1  0
 14 46  1  0
 15 47  1  0
 16 48  1  0
 22 49  1  0
 23 50  1  0
 24 51  1  0
 25 52  1  0
 26 53  1  0
M  ISO  8  27   8  28   8  29  13  30  13  31  13  32  13  33  13  34  13
M  ISO  8  35  13  36  13  37  13  38  13  39  13  40  13  41  13  42  13
M  ISO  8  43  13  44  13  47  14  48  14  49  14  50  14  51  14  52  14
M  ISO  1  53  14
M  END
>  <minimizedAffinity>  (1) 
-6.3879447

>  <minimizedRMSD>  (1) 
0.925291657

$$$$
