
     RDKit          3D

 48 52  0  0  1  0  0  0  0  0999 V2000
   47.2960   31.1420   46.9390 C   0  0  0  0  0  0  0  0  0  0  0  0
   47.0880   31.7450   48.2870 C   0  0  1  0  0  0  0  0  0  0  0  0
   46.3830   30.8670   49.2630 C   0  0  0  0  0  0  0  0  0  0  0  0
   47.7940   31.1970   49.4630 C   0  0  1  0  0  0  0  0  0  0  0  0
   48.8720   30.1880   49.2250 C   0  0  2  0  0  0  0  0  0  0  0  0
   49.7730   29.9210   50.4530 C   0  0  0  0  0  0  0  0  0  0  0  0
   50.3200   30.6630   49.3040 C   0  0  1  0  0  0  0  0  0  0  0  0
   51.1310   30.1010   48.2690 C   0  0  0  0  0  0  0  0  0  0  0  0
   52.4110   30.1990   47.9640 C   0  0  0  0  0  0  0  0  0  0  0  0
   52.9950   29.5810   46.8960 C   0  0  0  0  0  0  0  0  0  0  0  0
   52.1300   28.7960   46.0970 C   0  0  0  0  0  0  0  0  0  0  0  0
   50.4140   28.9730   46.9400 S   0  0  0  0  0  0  0  0  0  0  0  0
   46.1800   33.0770   46.1820 C   0  0  0  0  0  0  0  0  0  0  0  0
   46.9670   32.1410   45.8520 C   0  0  0  0  0  0  0  0  0  0  0  0
   44.5360   35.8490   44.3930 C   0  0  0  0  0  0  0  0  0  0  0  0
   45.1590   35.8340   43.1510 C   0  0  0  0  0  0  0  0  0  0  0  0
   46.1110   34.8810   42.9660 C   0  0  0  0  0  0  0  0  0  0  0  0
   46.4120   34.0070   43.9680 N   0  0  0  0  0  0  0  0  0  0  0  0
   45.7870   34.0510   45.1600 C   0  0  0  0  0  0  0  0  0  0  0  0
   44.8600   34.9770   45.3430 N   0  0  0  0  0  0  0  0  0  0  0  0
   46.8480   34.7430   41.7140 C   0  0  0  0  0  0  0  0  0  0  0  0
   48.0610   35.3450   41.4590 C   0  0  0  0  0  0  0  0  0  0  0  0
   48.7430   35.1980   40.2660 C   0  0  0  0  0  0  0  0  0  0  0  0
   48.2180   34.4250   39.2630 C   0  0  0  0  0  0  0  0  0  0  0  0
   47.0130   33.8060   39.4690 C   0  0  0  0  0  0  0  0  0  0  0  0
   46.3590   33.9750   40.6780 C   0  0  0  0  0  0  0  0  0  0  0  0
   48.3469   30.8327   46.8396 H   0  0  0  0  0  0  0  0  0  0  0  0
   46.6315   30.2718   46.8336 H   0  0  0  0  0  0  0  0  0  0  0  0
   46.9805   32.7611   47.8795 H   0  0  0  0  0  0  0  0  0  0  0  0
   45.6191   31.2904   49.9317 H   0  0  0  0  0  0  0  0  0  0  0  0
   45.8049   29.9338   49.1933 H   0  0  0  0  0  0  0  0  0  0  0  0
   48.3563   31.6093   50.3138 H   0  0  0  0  0  0  0  0  0  0  0  0
   48.2876   29.6018   48.5006 H   0  0  0  0  0  0  0  0  0  0  0  0
   49.5774   30.4443   51.4006 H   0  0  0  0  0  0  0  0  0  0  0  0
   50.0767   29.0219   51.0092 H   0  0  0  0  0  0  0  0  0  0  0  0
   50.9019   31.5965   49.3006 H   0  0  0  0  0  0  0  0  0  0  0  0
   53.0485   30.8185   48.6120 H   0  0  0  0  0  0  0  0  0  0  0  0
   54.0667   29.6862   46.6714 H   0  0  0  0  0  0  0  0  0  0  0  0
   52.3833   28.2161   45.1973 H   0  0  0  0  0  0  0  0  0  0  0  0
   45.8005   33.1569   47.2114 H   0  0  0  0  0  0  0  0  0  0  0  0
   47.3852   32.0597   44.8379 H   0  0  0  0  0  0  0  0  0  0  0  0
   43.7572   36.5992   44.5948 H   0  0  0  0  0  0  0  0  0  0  0  0
   44.8965   36.5533   42.3612 H   0  0  0  0  0  0  0  0  0  0  0  0
   48.5083   35.9733   42.2433 H   0  0  0  0  0  0  0  0  0  0  0  0
   49.7096   35.7026   40.1209 H   0  0  0  0  0  0  0  0  0  0  0  0
   48.7542   34.3038   38.3102 H   0  0  0  0  0  0  0  0  0  0  0  0
   46.5689   33.1802   38.6808 H   0  0  0  0  0  0  0  0  0  0  0  0
   45.3936   33.4673   40.8203 H   0  0  0  0  0  0  0  0  0  0  0  0
  1  2  1  0
  2  3  1  0
  2  4  1  0
  3  4  1  0
  5  7  1  0
  5  4  1  0
  5  6  1  0
  7  6  1  0
  8  7  1  0
  9  8  2  0
 10  9  1  0
 11 10  2  0
 11 12  1  0
 12  8  1  0
 14 13  2  0
 14  1  1  0
 15 20  2  0
 16 15  1  0
 17 16  2  0
 17 18  1  0
 18 19  2  0
 19 20  1  0
 19 13  1  0
 21 17  1  0
 22 21  2  0
 23 22  1  0
 24 25  1  0
 24 23  2  0
 25 26  2  0
 26 21  1  0
  1 27  1  0
  1 28  1  0
  2 29  1  6
  3 30  1  0
  3 31  1  0
  4 32  1  1
  5 33  1  6
  6 34  1  0
  6 35  1  0
  7 36  1  1
  9 37  1  0
 10 38  1  0
 11 39  1  0
 13 40  1  0
 14 41  1  0
 15 42  1  0
 16 43  1  0
 22 44  1  0
 23 45  1  0
 24 46  1  0
 25 47  1  0
 26 48  1  0
M  ISO  8  27   8  28   8  29  13  30  13  31  13  32  13  33  13  34  13
M  ISO  8  35  13  36  13  37  14  38  14  39  14  42  14  43  14  44  14
M  ISO  4  45  14  46  14  47  14  48  14
M  END
>  <minimizedAffinity>  (1) 
-6.16477442

>  <minimizedRMSD>  (1) 
1.09093726

$$$$
