
     RDKit          3D

 36 38  0  0  0  0  0  0  0  0999 V2000
   46.2010   34.0790   40.9250 C   0  0  0  0  0  0  0  0  0  0  0  0
   46.9590   33.9290   39.7910 C   0  0  0  0  0  0  0  0  0  0  0  0
   48.2240   34.4660   39.6000 C   0  0  0  0  0  0  0  0  0  0  0  0
   48.7200   35.2050   40.6710 C   0  0  0  0  0  0  0  0  0  0  0  0
   47.9790   35.3720   41.8260 C   0  0  0  0  0  0  0  0  0  0  0  0
   46.7360   34.8280   41.9790 C   0  0  0  0  0  0  0  0  0  0  0  0
   47.3770   32.6620   43.8620 Cl  0  0  0  0  0  0  0  0  0  0  0  0
   46.2530   34.0020   44.1190 C   0  0  0  0  0  0  0  0  0  0  0  0
   45.9690   35.0150   43.2070 C   0  0  0  0  0  0  0  0  0  0  0  0
   45.0740   35.9900   43.5440 C   0  0  0  0  0  0  0  0  0  0  0  0
   44.4550   35.9770   44.7700 C   0  0  0  0  0  0  0  0  0  0  0  0
   44.7240   34.9830   45.6850 C   0  0  0  0  0  0  0  0  0  0  0  0
   45.6340   33.9750   45.3690 C   0  0  0  0  0  0  0  0  0  0  0  0
   44.8560   33.5030   41.1190 C   0  0  0  0  0  0  0  0  0  0  0  0
   43.9950   33.6810   39.8810 C   0  0  0  0  0  0  0  0  0  0  0  0
   41.2080   35.7110   41.4370 C   0  0  0  0  0  0  0  0  0  0  0  0
   42.5220   35.3280   41.0590 C   0  0  0  0  0  0  0  0  0  0  0  0
   42.6570   34.1550   40.3180 C   0  0  0  0  0  0  0  0  0  0  0  0
   41.5180   33.4410   39.9990 N   0  0  0  0  0  0  0  0  0  0  0  0
   40.3040   33.8560   40.3860 C   0  0  0  0  0  0  0  0  0  0  0  0
   40.1400   34.9880   41.1040 N   0  0  0  0  0  0  0  0  0  0  0  0
   46.5302   33.3367   38.9692 H   0  0  0  0  0  0  0  0  0  0  0  0
   48.7935   34.3187   38.6705 H   0  0  0  0  0  0  0  0  0  0  0  0
   49.7173   35.6632   40.5968 H   0  0  0  0  0  0  0  0  0  0  0  0
   48.4052   35.9633   42.6498 H   0  0  0  0  0  0  0  0  0  0  0  0
   44.8469   36.7928   42.8272 H   0  0  0  0  0  0  0  0  0  0  0  0
   43.7360   36.7697   45.0242 H   0  0  0  0  0  0  0  0  0  0  0  0
   44.2216   34.9845   46.6636 H   0  0  0  0  0  0  0  0  0  0  0  0
   45.8591   33.1754   46.0900 H   0  0  0  0  0  0  0  0  0  0  0  0
   44.9541   32.4290   41.3357 H   0  0  0  0  0  0  0  0  0  0  0  0
   44.3719   34.0267   41.9565 H   0  0  0  0  0  0  0  0  0  0  0  0
   43.8970   32.7210   39.3530 H   0  0  0  0  0  0  0  0  0  0  0  0
   44.4544   34.4098   39.1970 H   0  0  0  0  0  0  0  0  0  0  0  0
   41.0679   36.6319   42.0221 H   0  0  0  0  0  0  0  0  0  0  0  0
   43.3975   35.9321   41.3394 H   0  0  0  0  0  0  0  0  0  0  0  0
   39.4204   33.2607   40.1124 H   0  0  0  0  0  0  0  0  0  0  0  0
  1 14  1  0
  1  6  1  0
  2  1  2  0
  3  2  1  0
  3  4  2  0
  4  5  1  0
  5  6  2  0
  6  9  1  0
  7  8  1  0
  8 13  2  0
  9 10  2  0
  9  8  1  0
 10 11  1  0
 11 12  2  0
 13 12  1  0
 15 18  1  0
 15 14  1  0
 17 16  2  0
 18 17  1  0
 19 18  2  0
 19 20  1  0
 20 21  2  0
 21 16  1  0
  2 22  1  0
  3 23  1  0
  4 24  1  0
  5 25  1  0
 10 26  1  0
 11 27  1  0
 12 28  1  0
 13 29  1  0
 14 30  1  0
 14 31  1  0
 15 32  1  0
 15 33  1  0
 16 34  1  0
 17 35  1  0
 20 36  1  0
M  ISO  8  22  14  23  14  24  14  25  14  26  14  27  14  28  14  29  14
M  ISO  7  30   8  31   8  32   8  33   8  34  14  35  14  36  14
M  END
>  <minimizedAffinity>  (1) 
-6.42018509

>  <minimizedRMSD>  (1) 
1.02548134

$$$$
