
     RDKit          3D

 42 45  0  0  0  0  0  0  0  0999 V2000
   46.6890   33.4730   40.4620 C   0  0  0  0  0  0  0  0  0  0  0  0
   47.1710   33.8470   39.2370 C   0  0  0  0  0  0  0  0  0  0  0  0
   48.2610   34.6820   39.0280 C   0  0  0  0  0  0  0  0  0  0  0  0
   48.8910   35.1610   40.1820 C   0  0  0  0  0  0  0  0  0  0  0  0
   48.4140   34.7930   41.4410 C   0  0  0  0  0  0  0  0  0  0  0  0
   47.3210   33.9550   41.6010 C   0  0  0  0  0  0  0  0  0  0  0  0
   46.9190   33.6430   42.9670 C   0  0  0  0  0  0  0  0  0  0  0  0
   47.4640   32.4920   43.4970 C   0  0  0  0  0  0  0  0  0  0  0  0
   47.1660   32.0800   44.7820 C   0  0  0  0  0  0  0  0  0  0  0  0
   46.3040   32.8280   45.5610 C   0  0  0  0  0  0  0  0  0  0  0  0
   45.7680   33.9720   45.0240 C   0  0  0  0  0  0  0  0  0  0  0  0
   44.8970   34.7580   45.7700 C   0  0  0  0  0  0  0  0  0  0  0  0
   44.3690   35.9090   45.2000 C   0  0  0  0  0  0  0  0  0  0  0  0
   44.6840   36.3050   43.9040 C   0  0  0  0  0  0  0  0  0  0  0  0
   45.5530   35.5350   43.1400 C   0  0  0  0  0  0  0  0  0  0  0  0
   46.0510   34.4020   43.7470 C   0  0  0  0  0  0  0  0  0  0  0  0
   45.5450   32.5890   40.6550 C   0  0  0  0  0  0  0  0  0  0  0  0
   44.4710   32.8070   39.6130 C   0  0  0  0  0  0  0  0  0  0  0  0
   42.2130   35.4440   41.0710 C   0  0  0  0  0  0  0  0  0  0  0  0
   43.3470   34.8490   40.4480 C   0  0  0  0  0  0  0  0  0  0  0  0
   43.3070   33.4600   40.2580 C   0  0  0  0  0  0  0  0  0  0  0  0
   42.1890   32.7630   40.6790 N   0  0  0  0  0  0  0  0  0  0  0  0
   41.1610   33.3930   41.2570 C   0  0  0  0  0  0  0  0  0  0  0  0
   41.1640   34.7200   41.4550 N   0  0  0  0  0  0  0  0  0  0  0  0
   46.6546   33.4556   38.3481 H   0  0  0  0  0  0  0  0  0  0  0  0
   48.6072   34.9499   38.0189 H   0  0  0  0  0  0  0  0  0  0  0  0
   49.7620   35.8274   40.0969 H   0  0  0  0  0  0  0  0  0  0  0  0
   48.9222   35.1807   42.3362 H   0  0  0  0  0  0  0  0  0  0  0  0
   48.1503   31.8894   42.8839 H   0  0  0  0  0  0  0  0  0  0  0  0
   47.6138   31.1590   45.1836 H   0  0  0  0  0  0  0  0  0  0  0  0
   46.0537   32.5147   46.5853 H   0  0  0  0  0  0  0  0  0  0  0  0
   44.6297   34.4720   46.7980 H   0  0  0  0  0  0  0  0  0  0  0  0
   43.6792   36.5279   45.7925 H   0  0  0  0  0  0  0  0  0  0  0  0
   44.2471   37.2238   43.4857 H   0  0  0  0  0  0  0  0  0  0  0  0
   45.8272   35.8133   42.1117 H   0  0  0  0  0  0  0  0  0  0  0  0
   45.8895   31.5460   40.5955 H   0  0  0  0  0  0  0  0  0  0  0  0
   45.1092   32.8117   41.6401 H   0  0  0  0  0  0  0  0  0  0  0  0
   44.1645   31.8391   39.1895 H   0  0  0  0  0  0  0  0  0  0  0  0
   44.8577   33.4450   38.8047 H   0  0  0  0  0  0  0  0  0  0  0  0
   42.2037   36.5310   41.2394 H   0  0  0  0  0  0  0  0  0  0  0  0
   44.2123   35.4497   40.1312 H   0  0  0  0  0  0  0  0  0  0  0  0
   40.2879   32.8066   41.5794 H   0  0  0  0  0  0  0  0  0  0  0  0
  1 17  1  0
  1  6  1  0
  2  1  2  0
  3  2  1  0
  3  4  2  0
  4  5  1  0
  5  6  2  0
  6  7  1  0
  7  8  2  0
  7 16  1  0
  8  9  1  0
  9 10  2  0
 11 10  1  0
 11 12  2  0
 13 12  1  0
 14 13  2  0
 15 16  2  0
 15 14  1  0
 16 11  1  0
 18 21  1  0
 18 17  1  0
 19 24  2  0
 20 19  1  0
 21 20  2  0
 21 22  1  0
 22 23  2  0
 23 24  1  0
  2 25  1  0
  3 26  1  0
  4 27  1  0
  5 28  1  0
  8 29  1  0
  9 30  1  0
 10 31  1  0
 12 32  1  0
 13 33  1  0
 14 34  1  0
 15 35  1  0
 17 36  1  0
 17 37  1  0
 18 38  1  0
 18 39  1  0
 19 40  1  0
 20 41  1  0
 23 42  1  0
M  ISO  8  25  14  26  14  27  14  28  14  29  14  30  14  31  14  32  14
M  ISO  8  33  14  34  14  35  14  36   8  37   8  38   8  39   8  40  14
M  ISO  2  41  14  42  14
M  END
>  <minimizedAffinity>  (1) 
-5.90034914

>  <minimizedRMSD>  (1) 
2.1835649

$$$$
