
     RDKit          3D

 32 33  0  0  0  0  0  0  0  0999 V2000
   45.7560   34.0720   41.4990 C   0  0  0  0  0  0  0  0  0  0  0  0
   46.5560   34.1030   40.3880 C   0  0  0  0  0  0  0  0  0  0  0  0
   47.8590   34.5770   40.3100 C   0  0  0  0  0  0  0  0  0  0  0  0
   48.3510   35.0660   41.5400 C   0  0  0  0  0  0  0  0  0  0  0  0
   47.5900   35.0590   42.6870 C   0  0  0  0  0  0  0  0  0  0  0  0
   46.3140   34.5700   42.6700 C   0  0  0  0  0  0  0  0  0  0  0  0
   44.3890   33.5600   41.5240 C   0  0  0  0  0  0  0  0  0  0  0  0
   43.7560   33.5770   40.1510 C   0  0  0  0  0  0  0  0  0  0  0  0
   40.7750   35.7490   39.3330 C   0  0  0  0  0  0  0  0  0  0  0  0
   42.0280   35.0890   39.1840 C   0  0  0  0  0  0  0  0  0  0  0  0
   42.4600   34.2860   40.2520 C   0  0  0  0  0  0  0  0  0  0  0  0
   41.6440   34.1920   41.3660 N   0  0  0  0  0  0  0  0  0  0  0  0
   40.4860   34.8350   41.4380 C   0  0  0  0  0  0  0  0  0  0  0  0
   40.0350   35.6160   40.4340 N   0  0  0  0  0  0  0  0  0  0  0  0
   45.5410   34.5600   43.8230 O   0  0  0  0  0  0  0  0  0  0  0  0
   45.2100   37.1300   44.0530 O   0  0  0  0  0  0  0  0  0  0  0  0
   44.5430   35.8100   44.3630 P   0  0  0  0  0  0  0  0  0  0  0  0
   42.9870   35.7780   43.7550 O   0  0  0  0  0  0  0  0  0  0  0  0
   44.4860   35.6970   46.0700 O   0  0  0  0  0  0  0  0  0  0  0  0
   46.1198   33.7104   39.4577 H   0  0  0  0  0  0  0  0  0  0  0  0
   48.4494   34.5720   39.3819 H   0  0  0  0  0  0  0  0  0  0  0  0
   49.3751   35.4653   41.5829 H   0  0  0  0  0  0  0  0  0  0  0  0
   48.0122   35.4500   43.6245 H   0  0  0  0  0  0  0  0  0  0  0  0
   44.4035   32.5250   41.8962 H   0  0  0  0  0  0  0  0  0  0  0  0
   43.7934   34.2095   42.1823 H   0  0  0  0  0  0  0  0  0  0  0  0
   43.5914   32.5465   39.8033 H   0  0  0  0  0  0  0  0  0  0  0  0
   44.4151   34.0872   39.4332 H   0  0  0  0  0  0  0  0  0  0  0  0
   40.4070   36.3871   38.5160 H   0  0  0  0  0  0  0  0  0  0  0  0
   42.6316   35.2033   38.2715 H   0  0  0  0  0  0  0  0  0  0  0  0
   39.8735   34.7282   42.3454 H   0  0  0  0  0  0  0  0  0  0  0  0
   42.3401   35.7647   44.5043 H   0  0  0  0  0  0  0  0  0  0  0  0
   44.8942   36.5063   46.4681 H   0  0  0  0  0  0  0  0  0  0  0  0
  1  7  1  0
  1  6  1  0
  2  1  2  0
  3  2  1  0
  3  4  2  0
  4  5  1  0
  6  5  2  0
  6 15  1  0
  8 11  1  0
  8  7  1  0
  9 14  2  0
 10  9  1  0
 10 11  2  0
 11 12  1  0
 12 13  2  0
 14 13  1  0
 15 17  1  0
 16 17  2  0
 17 19  1  0
 18 17  1  0
  2 20  1  0
  3 21  1  0
  4 22  1  0
  5 23  1  0
  7 24  1  0
  7 25  1  0
  8 26  1  0
  8 27  1  0
  9 28  1  0
 10 29  1  0
 13 30  1  0
 18 31  1  0
 19 32  1  0
M  ISO  8  20  14  21  14  22  14  23  14  24   8  25   8  26   8  27   8
M  ISO  5  28  14  29  14  30  14  31   3  32   3
M  END
>  <minimizedAffinity>  (1) 
-5.77288485

>  <minimizedRMSD>  (1) 
1.36736822

$$$$
