
     RDKit          3D

 28 29  0  0  0  0  0  0  0  0999 V2000
   44.9420   33.3930   41.2130 C   0  0  0  0  0  0  0  0  0  0  0  0
   46.2550   34.0610   41.0860 C   0  0  0  0  0  0  0  0  0  0  0  0
   47.0750   34.0040   39.9820 C   0  0  0  0  0  0  0  0  0  0  0  0
   48.2980   34.6330   39.8770 C   0  0  0  0  0  0  0  0  0  0  0  0
   48.6920   35.3700   41.0000 C   0  0  0  0  0  0  0  0  0  0  0  0
   47.8970   35.4490   42.1220 C   0  0  0  0  0  0  0  0  0  0  0  0
   46.6930   34.8080   42.1770 C   0  0  0  0  0  0  0  0  0  0  0  0
   45.9740   34.9640   43.3740 N   0  0  0  0  0  0  0  0  0  0  0  0
   44.0250   33.8040   40.0790 C   0  0  0  0  0  0  0  0  0  0  0  0
   41.0160   35.5570   41.5440 C   0  0  0  0  0  0  0  0  0  0  0  0
   42.3100   35.3630   41.0100 C   0  0  0  0  0  0  0  0  0  0  0  0
   42.6770   34.0790   40.6480 C   0  0  0  0  0  0  0  0  0  0  0  0
   41.7570   33.0660   40.8290 N   0  0  0  0  0  0  0  0  0  0  0  0
   40.5490   33.2950   41.3360 C   0  0  0  0  0  0  0  0  0  0  0  0
   40.1590   34.5280   41.6990 N   0  0  0  0  0  0  0  0  0  0  0  0
   45.0863   32.3029   41.1847 H   0  0  0  0  0  0  0  0  0  0  0  0
   44.4827   33.6904   42.1672 H   0  0  0  0  0  0  0  0  0  0  0  0
   46.7297   33.4136   39.1205 H   0  0  0  0  0  0  0  0  0  0  0  0
   48.9208   34.5605   38.9732 H   0  0  0  0  0  0  0  0  0  0  0  0
   49.6572   35.8974   40.9861 H   0  0  0  0  0  0  0  0  0  0  0  0
   48.2374   36.0375   42.9868 H   0  0  0  0  0  0  0  0  0  0  0  0
   46.3640   35.5334   44.1386 H   0  0  0  0  0  0  0  0  0  0  0  0
   45.0569   34.5089   43.4869 H   0  0  0  0  0  0  0  0  0  0  0  0
   43.9589   32.9916   39.3404 H   0  0  0  0  0  0  0  0  0  0  0  0
   44.4172   34.7020   39.5793 H   0  0  0  0  0  0  0  0  0  0  0  0
   40.7015   36.5689   41.8394 H   0  0  0  0  0  0  0  0  0  0  0  0
   43.0043   36.2071   40.8859 H   0  0  0  0  0  0  0  0  0  0  0  0
   39.8517   32.4535   41.4612 H   0  0  0  0  0  0  0  0  0  0  0  0
  2  1  1  0
  2  7  1  0
  3  2  2  0
  4  3  1  0
  4  5  2  0
  5  6  1  0
  6  7  2  0
  7  8  1  0
  9 12  1  0
  9  1  1  0
 10 15  2  0
 11 10  1  0
 12 13  1  0
 12 11  2  0
 13 14  2  0
 14 15  1  0
  1 16  1  0
  1 17  1  0
  3 18  1  0
  4 19  1  0
  5 20  1  0
  6 21  1  0
  8 22  1  0
  8 23  1  0
  9 24  1  0
  9 25  1  0
 10 26  1  0
 11 27  1  0
 14 28  1  0
M  ISO  8  16   8  17   8  18  14  19  14  20  14  21  14  24   8  25   8
M  ISO  3  26  14  27  14  28  14
M  END
>  <minimizedAffinity>  (1) 
-4.46460104

>  <minimizedRMSD>  (1) 
0.691087902

$$$$
