
     RDKit          3D

 40 42  0  0  0  0  0  0  0  0999 V2000
   45.6870   33.6940   40.6630 C   0  0  0  0  0  0  0  0  0  0  0  0
   46.1710   33.3550   39.4030 C   0  0  0  0  0  0  0  0  0  0  0  0
   47.4050   33.7110   38.9330 C   0  0  0  0  0  0  0  0  0  0  0  0
   48.1970   34.4580   39.7970 C   0  0  0  0  0  0  0  0  0  0  0  0
   47.7670   34.8180   41.0520 C   0  0  0  0  0  0  0  0  0  0  0  0
   46.5300   34.4470   41.4930 C   0  0  0  0  0  0  0  0  0  0  0  0
   46.1880   34.8680   42.7920 N   0  0  0  0  0  0  0  0  0  0  0  0
   45.3150   35.9990   43.0570 C   0  0  0  0  0  0  0  0  0  0  0  0
   44.7670   35.9170   44.4780 C   0  0  0  0  0  0  0  0  0  0  0  0
   44.4220   34.6030   44.8980 N   0  0  0  0  0  0  0  0  0  0  0  0
   45.4700   33.6400   44.7700 C   0  0  0  0  0  0  0  0  0  0  0  0
   46.6450   34.2490   44.0320 C   0  0  0  0  0  0  0  0  0  0  0  0
   44.3540   33.3280   41.1900 C   0  0  0  0  0  0  0  0  0  0  0  0
   43.4050   33.0430   40.0200 C   0  0  0  0  0  0  0  0  0  0  0  0
   40.7900   35.6830   39.4250 C   0  0  0  0  0  0  0  0  0  0  0  0
   41.9420   34.8760   39.2550 C   0  0  0  0  0  0  0  0  0  0  0  0
   42.2050   33.8860   40.1930 C   0  0  0  0  0  0  0  0  0  0  0  0
   41.3180   33.7470   41.2450 N   0  0  0  0  0  0  0  0  0  0  0  0
   40.2400   34.5340   41.3670 C   0  0  0  0  0  0  0  0  0  0  0  0
   39.9750   35.4910   40.4700 N   0  0  0  0  0  0  0  0  0  0  0  0
   45.5196   32.7631   38.7432 H   0  0  0  0  0  0  0  0  0  0  0  0
   47.7507   33.4228   37.9293 H   0  0  0  0  0  0  0  0  0  0  0  0
   49.1985   34.7707   39.4664 H   0  0  0  0  0  0  0  0  0  0  0  0
   48.4249   35.4095   41.7057 H   0  0  0  0  0  0  0  0  0  0  0  0
   45.8841   36.9330   42.9399 H   0  0  0  0  0  0  0  0  0  0  0  0
   44.4758   35.9802   42.3461 H   0  0  0  0  0  0  0  0  0  0  0  0
   45.5316   36.3085   45.1651 H   0  0  0  0  0  0  0  0  0  0  0  0
   43.8379   36.5057   44.4914 H   0  0  0  0  0  0  0  0  0  0  0  0
   44.1448   34.6455   45.8891 H   0  0  0  0  0  0  0  0  0  0  0  0
   45.7948   33.3196   45.7709 H   0  0  0  0  0  0  0  0  0  0  0  0
   45.0975   32.7735   44.2040 H   0  0  0  0  0  0  0  0  0  0  0  0
   47.3763   33.4613   43.7981 H   0  0  0  0  0  0  0  0  0  0  0  0
   47.1130   35.0153   44.6674 H   0  0  0  0  0  0  0  0  0  0  0  0
   44.4418   32.4296   41.8186 H   0  0  0  0  0  0  0  0  0  0  0  0
   43.9562   34.1581   41.7922 H   0  0  0  0  0  0  0  0  0  0  0  0
   43.1189   31.9809   40.0211 H   0  0  0  0  0  0  0  0  0  0  0  0
   43.8978   33.2698   39.0630 H   0  0  0  0  0  0  0  0  0  0  0  0
   40.5635   36.4727   38.6935 H   0  0  0  0  0  0  0  0  0  0  0  0
   42.6141   35.0303   38.3980 H   0  0  0  0  0  0  0  0  0  0  0  0
   39.5606   34.3906   42.2202 H   0  0  0  0  0  0  0  0  0  0  0  0
  1 13  1  0
  1  6  1  0
  2  1  2  0
  3  2  1  0
  3  4  2  0
  4  5  1  0
  5  6  2  0
  6  7  1  0
  7  8  1  0
  7 12  1  0
  8  9  1  0
  9 10  1  0
 11 10  1  0
 12 11  1  0
 14 17  1  0
 14 13  1  0
 15 20  2  0
 16 15  1  0
 16 17  2  0
 17 18  1  0
 18 19  2  0
 20 19  1  0
  2 21  1  0
  3 22  1  0
  4 23  1  0
  5 24  1  0
  8 25  1  0
  8 26  1  0
  9 27  1  0
  9 28  1  0
 10 29  1  0
 11 30  1  0
 11 31  1  0
 12 32  1  0
 12 33  1  0
 13 34  1  0
 13 35  1  0
 14 36  1  0
 14 37  1  0
 15 38  1  0
 16 39  1  0
 19 40  1  0
M  ISO  8  21  14  22  14  23  14  24  14  25  13  26  13  27  13  28  13
M  ISO  8  29   5  30  13  31  13  32  13  33  13  34   8  35   8  36   8
M  ISO  4  37   8  38  14  39  14  40  14
M  END
>  <minimizedAffinity>  (1) 
-5.34838438

>  <minimizedRMSD>  (1) 
1.55962551

$$$$
