
     RDKit          3D

 29 30  0  0  0  0  0  0  0  0999 V2000
   44.4080   33.8850   41.2220 C   0  0  0  0  0  0  0  0  0  0  0  0
   45.8250   34.2510   41.0850 C   0  0  0  0  0  0  0  0  0  0  0  0
   46.6230   33.9260   40.0090 C   0  0  0  0  0  0  0  0  0  0  0  0
   47.9610   34.2710   39.8780 C   0  0  0  0  0  0  0  0  0  0  0  0
   48.5020   35.0010   40.9310 C   0  0  0  0  0  0  0  0  0  0  0  0
   47.7260   35.3490   42.0370 C   0  0  0  0  0  0  0  0  0  0  0  0
   46.4120   34.9810   42.1110 C   0  0  0  0  0  0  0  0  0  0  0  0
   45.5910   35.3640   43.3080 C   0  0  0  0  0  0  0  0  0  0  0  0
   43.7460   33.8120   39.8440 C   0  0  0  0  0  0  0  0  0  0  0  0
   40.5330   35.7100   40.3370 C   0  0  0  0  0  0  0  0  0  0  0  0
   41.9220   35.4340   40.1840 C   0  0  0  0  0  0  0  0  0  0  0  0
   42.3120   34.1110   40.0050 C   0  0  0  0  0  0  0  0  0  0  0  0
   41.3180   33.1810   39.9920 N   0  0  0  0  0  0  0  0  0  0  0  0
   40.0280   33.4570   40.1380 C   0  0  0  0  0  0  0  0  0  0  0  0
   39.6350   34.7320   40.3110 N   0  0  0  0  0  0  0  0  0  0  0  0
   44.3319   32.9042   41.7142 H   0  0  0  0  0  0  0  0  0  0  0  0
   43.8965   34.6488   41.8262 H   0  0  0  0  0  0  0  0  0  0  0  0
   46.1645   33.3494   39.1921 H   0  0  0  0  0  0  0  0  0  0  0  0
   48.5555   33.9853   38.9977 H   0  0  0  0  0  0  0  0  0  0  0  0
   49.5574   35.3086   40.8912 H   0  0  0  0  0  0  0  0  0  0  0  0
   48.1767   35.9257   42.8582 H   0  0  0  0  0  0  0  0  0  0  0  0
   46.1399   35.1079   44.2262 H   0  0  0  0  0  0  0  0  0  0  0  0
   45.3955   36.4463   43.2874 H   0  0  0  0  0  0  0  0  0  0  0  0
   44.6361   34.8184   43.2874 H   0  0  0  0  0  0  0  0  0  0  0  0
   43.8710   32.8031   39.4239 H   0  0  0  0  0  0  0  0  0  0  0  0
   44.2108   34.5378   39.1605 H   0  0  0  0  0  0  0  0  0  0  0  0
   40.1993   36.7485   40.4788 H   0  0  0  0  0  0  0  0  0  0  0  0
   42.6654   36.2445   40.2068 H   0  0  0  0  0  0  0  0  0  0  0  0
   39.2838   32.6472   40.1177 H   0  0  0  0  0  0  0  0  0  0  0  0
  2  1  1  0
  2  7  1  0
  3  2  2  0
  4  3  1  0
  4  5  2  0
  5  6  1  0
  6  7  2  0
  7  8  1  0
  9 12  1  0
  9  1  1  0
 11 10  2  0
 12 11  1  0
 13 12  2  0
 13 14  1  0
 14 15  2  0
 15 10  1  0
  1 16  1  0
  1 17  1  0
  3 18  1  0
  4 19  1  0
  5 20  1  0
  6 21  1  0
  8 22  1  0
  8 23  1  0
  8 24  1  0
  9 25  1  0
  9 26  1  0
 10 27  1  0
 11 28  1  0
 14 29  1  0
M  ISO  8  16   8  17   8  18  14  19  14  20  14  21  14  22   8  23   8
M  ISO  6  24   8  25   8  26   8  27  14  28  14  29  14
M  END
>  <minimizedAffinity>  (1) 
-4.53914404

>  <minimizedRMSD>  (1) 
1.03764629

$$$$
