
     RDKit          3D

 13 13  0  0  0  0  0  0  0  0999 V2000
   45.4380   35.0680   43.9960 C   0  0  0  0  0  0  0  0  0  0  0  0
   46.5000   34.2960   43.5040 C   0  0  0  0  0  0  0  0  0  0  0  0
   47.0190   33.2870   44.3360 C   0  0  0  0  0  0  0  0  0  0  0  0
   46.4610   33.1210   45.5630 N   0  0  0  0  0  0  0  0  0  0  0  0
   45.4300   33.8940   45.9990 C   0  0  0  0  0  0  0  0  0  0  0  0
   44.9210   34.8670   45.2110 N   0  0  0  0  0  0  0  0  0  0  0  0
   44.8960   36.1400   43.0950 C   0  0  0  0  0  0  0  0  0  0  0  0
   46.9139   34.4734   42.5004 H   0  0  0  0  0  0  0  0  0  0  0  0
   47.8523   32.6512   44.0024 H   0  0  0  0  0  0  0  0  0  0  0  0
   45.0073   33.7259   47.0005 H   0  0  0  0  0  0  0  0  0  0  0  0
   44.4829   36.9571   43.7046 H   0  0  0  0  0  0  0  0  0  0  0  0
   45.7056   36.5293   42.4602 H   0  0  0  0  0  0  0  0  0  0  0  0
   44.1025   35.7189   42.4602 H   0  0  0  0  0  0  0  0  0  0  0  0
  1  6  2  0
  2  1  1  0
  2  3  2  0
  3  4  1  0
  4  5  2  0
  6  5  1  0
  7  1  1  0
  2  8  1  0
  3  9  1  0
  5 10  1  0
  7 11  1  0
  7 12  1  0
  7 13  1  0
M  ISO  6   8  14   9  14  10  14  11   8  12   8  13   8
M  END
>  <minimizedAffinity>  (1) 
-2.66824841

>  <minimizedRMSD>  (1) 
1.38996506

$$$$
