
     RDKit          3D

 43 45  0  0  0  0  0  0  0  0999 V2000
   45.8530   33.7870   40.5640 C   0  0  0  0  0  0  0  0  0  0  0  0
   46.3820   33.4940   39.3260 C   0  0  0  0  0  0  0  0  0  0  0  0
   47.6340   33.8740   38.9050 C   0  0  0  0  0  0  0  0  0  0  0  0
   48.3890   34.6050   39.8310 C   0  0  0  0  0  0  0  0  0  0  0  0
   47.9110   34.9200   41.0710 C   0  0  0  0  0  0  0  0  0  0  0  0
   46.6610   34.5220   41.4450 C   0  0  0  0  0  0  0  0  0  0  0  0
   46.2650   34.8900   42.7510 N   0  0  0  0  0  0  0  0  0  0  0  0
   45.3830   35.9800   43.0520 C   0  0  0  0  0  0  0  0  0  0  0  0
   44.7780   35.8290   44.4310 C   0  0  0  0  0  0  0  0  0  0  0  0
   44.4450   34.4910   44.7740 N   0  0  0  0  0  0  0  0  0  0  0  0
   45.5020   33.5630   44.6610 C   0  0  0  0  0  0  0  0  0  0  0  0
   46.6920   34.2150   43.9860 C   0  0  0  0  0  0  0  0  0  0  0  0
   44.5180   33.3840   41.0040 C   0  0  0  0  0  0  0  0  0  0  0  0
   43.7480   32.6910   39.8990 C   0  0  0  0  0  0  0  0  0  0  0  0
   41.5530   35.4180   38.4860 C   0  0  0  0  0  0  0  0  0  0  0  0
   42.7060   34.6610   38.8080 C   0  0  0  0  0  0  0  0  0  0  0  0
   42.5560   33.5000   39.5550 C   0  0  0  0  0  0  0  0  0  0  0  0
   41.2890   33.1550   39.9400 N   0  0  0  0  0  0  0  0  0  0  0  0
   40.2170   33.8810   39.6270 C   0  0  0  0  0  0  0  0  0  0  0  0
   40.3430   35.0110   38.9020 N   0  0  0  0  0  0  0  0  0  0  0  0
   38.8930   33.3810   40.1150 C   0  0  0  0  0  0  0  0  0  0  0  0
   38.9340   33.0470   41.4730 F   0  0  0  0  0  0  0  0  0  0  0  0
   38.5130   32.2220   39.4570 F   0  0  0  0  0  0  0  0  0  0  0  0
   37.8930   34.3280   39.9930 F   0  0  0  0  0  0  0  0  0  0  0  0
   45.7597   32.9164   38.6266 H   0  0  0  0  0  0  0  0  0  0  0  0
   48.0181   33.6205   37.9059 H   0  0  0  0  0  0  0  0  0  0  0  0
   49.3997   34.9361   39.5504 H   0  0  0  0  0  0  0  0  0  0  0  0
   48.5355   35.4960   41.7698 H   0  0  0  0  0  0  0  0  0  0  0  0
   45.9493   36.9221   43.0097 H   0  0  0  0  0  0  0  0  0  0  0  0
   44.5686   35.9838   42.3126 H   0  0  0  0  0  0  0  0  0  0  0  0
   45.5018   36.2051   45.1690 H   0  0  0  0  0  0  0  0  0  0  0  0
   43.8378   36.4000   44.4296 H   0  0  0  0  0  0  0  0  0  0  0  0
   44.1174   34.4841   45.7505 H   0  0  0  0  0  0  0  0  0  0  0  0
   45.7948   33.2199   45.6643 H   0  0  0  0  0  0  0  0  0  0  0  0
   45.1682   32.7062   44.0573 H   0  0  0  0  0  0  0  0  0  0  0  0
   47.4381   33.4449   43.7405 H   0  0  0  0  0  0  0  0  0  0  0  0
   47.1312   34.9573   44.6687 H   0  0  0  0  0  0  0  0  0  0  0  0
   44.6165   32.6950   41.8558 H   0  0  0  0  0  0  0  0  0  0  0  0
   43.9641   34.2900   41.2910 H   0  0  0  0  0  0  0  0  0  0  0  0
   44.3905   32.5869   39.0122 H   0  0  0  0  0  0  0  0  0  0  0  0
   43.4323   31.6933   40.2380 H   0  0  0  0  0  0  0  0  0  0  0  0
   41.6490   36.3404   37.8944 H   0  0  0  0  0  0  0  0  0  0  0  0
   43.7017   34.9867   38.4726 H   0  0  0  0  0  0  0  0  0  0  0  0
  1 13  1  0
  1  6  1  0
  2  1  2  0
  3  2  1  0
  3  4  2  0
  4  5  1  0
  5  6  2  0
  6  7  1  0
  7  8  1  0
  7 12  1  0
  8  9  1  0
  9 10  1  0
 11 10  1  0
 12 11  1  0
 14 13  1  0
 15 16  2  0
 15 20  1  0
 16 17  1  0
 17 14  1  0
 17 18  2  0
 19 18  1  0
 19 21  1  0
 20 19  2  0
 21 22  1  0
 23 21  1  0
 24 21  1  0
  2 25  1  0
  3 26  1  0
  4 27  1  0
  5 28  1  0
  8 29  1  0
  8 30  1  0
  9 31  1  0
  9 32  1  0
 10 33  1  0
 11 34  1  0
 11 35  1  0
 12 36  1  0
 12 37  1  0
 13 38  1  0
 13 39  1  0
 14 40  1  0
 14 41  1  0
 15 42  1  0
 16 43  1  0
M  ISO  8  25  14  26  14  27  14  28  14  29  13  30  13  31  13  32  13
M  ISO  8  33   5  34  13  35  13  36  13  37  13  38   8  39   8  40   8
M  ISO  3  41   8  42  14  43  14
M  END
>  <minimizedAffinity>  (1) 
-5.99012804

>  <minimizedRMSD>  (1) 
1.38536954

$$$$
