
     RDKit          3D

 33 36  0  0  1  0  0  0  0  0999 V2000
   46.4020   32.6610   45.8460 C   0  0  1  0  0  0  0  0  0  0  0  0
   46.9720   32.8510   47.2030 C   0  0  0  0  0  0  0  0  0  0  0  0
   45.5940   32.2100   47.0040 C   0  0  2  0  0  0  0  0  0  0  0  0
   45.3890   30.7950   47.3110 C   0  0  0  0  0  0  0  0  0  0  0  0
   45.2370   30.2540   48.5550 C   0  0  0  0  0  0  0  0  0  0  0  0
   45.0430   28.9190   48.8420 C   0  0  0  0  0  0  0  0  0  0  0  0
   45.0000   28.0510   47.7470 C   0  0  0  0  0  0  0  0  0  0  0  0
   45.1510   28.5670   46.4720 C   0  0  0  0  0  0  0  0  0  0  0  0
   45.1000   27.6630   45.4110 C   0  0  0  0  0  0  0  0  0  0  0  0
   45.2460   28.1260   44.1030 C   0  0  0  0  0  0  0  0  0  0  0  0
   45.4380   29.4660   43.8490 C   0  0  0  0  0  0  0  0  0  0  0  0
   45.4820   30.3290   44.9280 C   0  0  0  0  0  0  0  0  0  0  0  0
   45.3420   29.9140   46.2410 C   0  0  0  0  0  0  0  0  0  0  0  0
   44.5760   35.7260   44.8230 C   0  0  0  0  0  0  0  0  0  0  0  0
   45.1130   35.9740   43.5240 C   0  0  0  0  0  0  0  0  0  0  0  0
   46.0980   35.0710   43.0440 C   0  0  0  0  0  0  0  0  0  0  0  0
   46.4850   34.0370   43.8130 N   0  0  0  0  0  0  0  0  0  0  0  0
   45.9420   33.8390   45.0550 C   0  0  0  0  0  0  0  0  0  0  0  0
   45.0050   34.6740   45.5450 N   0  0  0  0  0  0  0  0  0  0  0  0
   46.7713   32.1783   44.9292 H   0  0  0  0  0  0  0  0  0  0  0  0
   47.8237   32.2396   47.5359 H   0  0  0  0  0  0  0  0  0  0  0  0
   47.3655   33.7032   47.7765 H   0  0  0  0  0  0  0  0  0  0  0  0
   44.5682   32.4029   47.3513 H   0  0  0  0  0  0  0  0  0  0  0  0
   45.2726   30.9475   49.4081 H   0  0  0  0  0  0  0  0  0  0  0  0
   44.9285   28.5575   49.8746 H   0  0  0  0  0  0  0  0  0  0  0  0
   44.8481   26.9719   47.8970 H   0  0  0  0  0  0  0  0  0  0  0  0
   44.9456   26.5912   45.6044 H   0  0  0  0  0  0  0  0  0  0  0  0
   45.2074   27.4134   43.2659 H   0  0  0  0  0  0  0  0  0  0  0  0
   45.5527   29.8377   42.8201 H   0  0  0  0  0  0  0  0  0  0  0  0
   45.6362   31.4006   44.7331 H   0  0  0  0  0  0  0  0  0  0  0  0
   43.8085   36.3972   45.2358 H   0  0  0  0  0  0  0  0  0  0  0  0
   44.7775   36.8296   42.9195 H   0  0  0  0  0  0  0  0  0  0  0  0
   46.5425   35.2161   42.0483 H   0  0  0  0  0  0  0  0  0  0  0  0
  1  3  1  0
  1  2  1  0
  3  2  1  0
  3  4  1  0
  4  5  2  0
  5  6  1  0
  7  6  2  0
  8  7  1  0
  9  8  2  0
 10  9  1  0
 11 10  2  0
 11 12  1  0
 12 13  2  0
 13  8  1  0
 13  4  1  0
 14 19  2  0
 15 14  1  0
 16 15  2  0
 16 17  1  0
 17 18  2  0
 18 19  1  0
 18  1  1  0
  1 20  1  6
  2 21  1  0
  2 22  1  0
  3 23  1  1
  5 24  1  0
  6 25  1  0
  7 26  1  0
  9 27  1  0
 10 28  1  0
 11 29  1  0
 12 30  1  0
 14 31  1  0
 15 32  1  0
 16 33  1  0
M  ISO  8  20  13  21  13  22  13  23  13  24  14  25  14  26  14  27  14
M  ISO  6  28  14  29  14  30  14  31  14  32  14  33  14
M  END
>  <minimizedAffinity>  (1) 
-4.69031906

>  <minimizedRMSD>  (1) 
1.2829175

$$$$
