
     RDKit          3D

 35 38  0  0  1  0  0  0  0  0999 V2000
   46.4490   32.4620   46.0040 C   0  0  1  0  0  0  0  0  0  0  0  0
   46.9640   32.6600   47.3680 C   0  0  0  0  0  0  0  0  0  0  0  0
   45.5460   32.0370   47.0560 C   0  0  2  0  0  0  0  0  0  0  0  0
   45.2730   30.6460   47.4270 C   0  0  0  0  0  0  0  0  0  0  0  0
   45.1430   30.1330   48.6800 C   0  0  0  0  0  0  0  0  0  0  0  0
   45.0070   28.7880   48.9950 C   0  0  0  0  0  0  0  0  0  0  0  0
   45.0060   27.8910   47.9180 C   0  0  0  0  0  0  0  0  0  0  0  0
   45.1350   28.3910   46.6210 C   0  0  0  0  0  0  0  0  0  0  0  0
   45.0660   27.4710   45.5900 C   0  0  0  0  0  0  0  0  0  0  0  0
   45.1190   27.9350   44.2790 C   0  0  0  0  0  0  0  0  0  0  0  0
   45.2360   29.2820   44.0070 C   0  0  0  0  0  0  0  0  0  0  0  0
   45.3010   30.1460   45.0750 C   0  0  0  0  0  0  0  0  0  0  0  0
   45.2610   29.7380   46.3970 C   0  0  0  0  0  0  0  0  0  0  0  0
   44.7250   35.4910   44.7830 C   0  0  0  0  0  0  0  0  0  0  0  0
   45.3580   35.7140   43.5110 C   0  0  0  0  0  0  0  0  0  0  0  0
   46.3890   34.8020   43.1170 C   0  0  0  0  0  0  0  0  0  0  0  0
   46.7240   33.7820   43.9400 N   0  0  0  0  0  0  0  0  0  0  0  0
   46.0730   33.6270   45.1480 C   0  0  0  0  0  0  0  0  0  0  0  0
   45.1100   34.4560   45.5490 N   0  0  0  0  0  0  0  0  0  0  0  0
   47.0340   35.0080   41.8510 C   0  0  0  0  0  0  0  0  0  0  0  0
   48.1780   35.4820   41.7690 O   0  0  0  0  0  0  0  0  0  0  0  0
   46.8759   31.9562   45.1254 H   0  0  0  0  0  0  0  0  0  0  0  0
   47.7786   32.0302   47.7550 H   0  0  0  0  0  0  0  0  0  0  0  0
   47.3519   33.5027   47.9591 H   0  0  0  0  0  0  0  0  0  0  0  0
   44.4880   32.2447   47.2740 H   0  0  0  0  0  0  0  0  0  0  0  0
   45.1459   30.8466   49.5171 H   0  0  0  0  0  0  0  0  0  0  0  0
   44.9054   28.4443   50.0350 H   0  0  0  0  0  0  0  0  0  0  0  0
   44.9051   26.8096   48.0921 H   0  0  0  0  0  0  0  0  0  0  0  0
   44.9713   26.3958   45.8020 H   0  0  0  0  0  0  0  0  0  0  0  0
   45.0668   27.2168   43.4475 H   0  0  0  0  0  0  0  0  0  0  0  0
   45.2759   29.6523   42.9720 H   0  0  0  0  0  0  0  0  0  0  0  0
   45.3898   31.2225   44.8668 H   0  0  0  0  0  0  0  0  0  0  0  0
   43.9278   36.1658   45.1280 H   0  0  0  0  0  0  0  0  0  0  0  0
   45.0612   36.5536   42.8652 H   0  0  0  0  0  0  0  0  0  0  0  0
   46.4994   34.7383   40.9282 H   0  0  0  0  0  0  0  0  0  0  0  0
  1  3  1  0
  1  2  1  0
  3  2  1  0
  3  4  1  0
  4  5  2  0
  5  6  1  0
  7  6  2  0
  8  7  1  0
  9  8  2  0
 10  9  1  0
 11 10  2  0
 11 12  1  0
 12 13  2  0
 13  8  1  0
 13  4  1  0
 14 19  2  0
 15 14  1  0
 16 15  2  0
 16 17  1  0
 17 18  2  0
 18 19  1  0
 18  1  1  0
 20 16  1  0
 21 20  2  0
  1 22  1  6
  2 23  1  0
  2 24  1  0
  3 25  1  1
  5 26  1  0
  6 27  1  0
  7 28  1  0
  9 29  1  0
 10 30  1  0
 11 31  1  0
 12 32  1  0
 14 33  1  0
 15 34  1  0
 20 35  1  0
M  ISO  8  22  13  23  13  24  13  25  13  26  14  27  14  28  14  29  14
M  ISO  6  30  14  31  14  32  14  33  14  34  14  35   6
M  END
>  <minimizedAffinity>  (1) 
-4.82295227

>  <minimizedRMSD>  (1) 
0.384446889

$$$$
