
     RDKit          3D

 20 21  0  0  0  0  0  0  0  0999 V2000
   45.8820   34.2060   41.7990 C   0  0  0  0  0  0  0  0  0  0  0  0
   45.1960   33.4400   40.8970 C   0  0  0  0  0  0  0  0  0  0  0  0
   45.9130   33.3400   39.7270 C   0  0  0  0  0  0  0  0  0  0  0  0
   47.0350   34.0540   39.9330 N   0  0  0  0  0  0  0  0  0  0  0  0
   47.0250   34.5690   41.1540 N   0  0  0  0  0  0  0  0  0  0  0  0
   44.4560   35.9640   44.8150 C   0  0  0  0  0  0  0  0  0  0  0  0
   44.7960   35.7390   43.4620 C   0  0  0  0  0  0  0  0  0  0  0  0
   45.4740   34.5570   43.1540 C   0  0  0  0  0  0  0  0  0  0  0  0
   45.7760   33.6810   44.1580 N   0  0  0  0  0  0  0  0  0  0  0  0
   45.4270   33.9420   45.4490 C   0  0  0  0  0  0  0  0  0  0  0  0
   44.7770   35.0730   45.7540 N   0  0  0  0  0  0  0  0  0  0  0  0
   48.1470   34.2860   39.0250 C   0  0  0  0  0  0  0  0  0  0  0  0
   48.7920   35.4320   39.3750 F   0  0  0  0  0  0  0  0  0  0  0  0
   48.9880   33.1930   39.0870 F   0  0  0  0  0  0  0  0  0  0  0  0
   47.7330   34.4130   37.7070 F   0  0  0  0  0  0  0  0  0  0  0  0
   44.2168   32.9734   41.0798 H   0  0  0  0  0  0  0  0  0  0  0  0
   45.6293   32.7924   38.8161 H   0  0  0  0  0  0  0  0  0  0  0  0
   43.9213   36.8831   45.0965 H   0  0  0  0  0  0  0  0  0  0  0  0
   44.5364   36.4678   42.6800 H   0  0  0  0  0  0  0  0  0  0  0  0
   45.6794   33.2228   46.2421 H   0  0  0  0  0  0  0  0  0  0  0  0
  1  8  1  0
  2  1  1  0
  3  4  1  0
  3  2  2  0
  4  5  1  0
  5  1  2  0
  6 11  2  0
  7  6  1  0
  8  7  2  0
  8  9  1  0
  9 10  2  0
 10 11  1  0
 12 14  1  0
 12 13  1  0
 12  4  1  0
 15 12  1  0
  2 16  1  0
  3 17  1  0
  6 18  1  0
  7 19  1  0
 10 20  1  0
M  ISO  5  16  14  17  14  18  14  19  14  20  14
M  END
>  <minimizedAffinity>  (1) 
-4.50531149

>  <minimizedRMSD>  (1) 
1.92545736

$$$$
