
     RDKit          3D

 40 43  0  0  1  0  0  0  0  0999 V2000
   39.6990   33.5420   42.0630 N   0  0  0  0  0  0  0  0  0  0  0  0
   39.9320   34.6980   41.1950 C   0  0  2  0  0  0  0  0  0  0  0  0
   39.0790   34.6790   39.9770 C   0  0  0  0  0  0  0  0  0  0  0  0
   38.0250   33.6850   40.0480 N   0  0  0  0  0  0  0  0  0  0  0  0
   38.4610   32.3840   40.4080 C   0  0  0  0  0  0  0  0  0  0  0  0
   39.7800   32.3800   41.1450 C   0  0  2  0  0  0  0  0  0  0  0  0
   39.9390   31.1520   41.9310 C   0  0  0  0  0  0  0  0  0  0  0  0
   40.9580   30.8680   42.7870 C   0  0  0  0  0  0  0  0  0  0  0  0
   41.1000   29.7100   43.5210 C   0  0  0  0  0  0  0  0  0  0  0  0
   40.1020   28.7560   43.3610 C   0  0  0  0  0  0  0  0  0  0  0  0
   39.0730   29.0610   42.4890 C   0  0  0  0  0  0  0  0  0  0  0  0
   38.9900   30.2050   41.8020 N   0  0  0  0  0  0  0  0  0  0  0  0
   43.5170   34.6160   40.7940 C   0  0  0  0  0  0  0  0  0  0  0  0
   43.0260   34.6870   39.4840 C   0  0  0  0  0  0  0  0  0  0  0  0
   41.6430   34.7300   39.5030 C   0  0  0  0  0  0  0  0  0  0  0  0
   41.3270   34.6830   40.7950 N   0  0  0  0  0  0  0  0  0  0  0  0
   42.4170   34.6180   41.5460 N   0  0  0  0  0  0  0  0  0  0  0  0
   47.2200   33.9870   40.8880 C   0  0  0  0  0  0  0  0  0  0  0  0
   45.8770   33.9320   40.3980 C   0  0  0  0  0  0  0  0  0  0  0  0
   44.9330   34.5710   41.1630 C   0  0  0  0  0  0  0  0  0  0  0  0
   45.3000   35.2020   42.3060 N   0  0  0  0  0  0  0  0  0  0  0  0
   46.5800   35.2340   42.7400 C   0  0  0  0  0  0  0  0  0  0  0  0
   47.5160   34.6210   42.0140 N   0  0  0  0  0  0  0  0  0  0  0  0
   40.4220   33.4818   42.7941 H   0  0  0  0  0  0  0  0  0  0  0  0
   39.6761   35.6082   41.7572 H   0  0  0  0  0  0  0  0  0  0  0  0
   39.7136   34.4576   39.1062 H   0  0  0  0  0  0  0  0  0  0  0  0
   38.6004   35.6657   39.8908 H   0  0  0  0  0  0  0  0  0  0  0  0
   37.3359   33.9974   40.7469 H   0  0  0  0  0  0  0  0  0  0  0  0
   37.6980   31.9262   41.0547 H   0  0  0  0  0  0  0  0  0  0  0  0
   38.6063   31.8187   39.4756 H   0  0  0  0  0  0  0  0  0  0  0  0
   40.6319   32.4332   40.4512 H   0  0  0  0  0  0  0  0  0  0  0  0
   41.7401   31.6327   42.9039 H   0  0  0  0  0  0  0  0  0  0  0  0
   41.9545   29.5500   44.1950 H   0  0  0  0  0  0  0  0  0  0  0  0
   40.1295   27.8000   43.9044 H   0  0  0  0  0  0  0  0  0  0  0  0
   38.2742   28.3172   42.3523 H   0  0  0  0  0  0  0  0  0  0  0  0
   43.6468   34.7058   38.5761 H   0  0  0  0  0  0  0  0  0  0  0  0
   40.9588   34.7896   38.6437 H   0  0  0  0  0  0  0  0  0  0  0  0
   48.0223   33.4938   40.3196 H   0  0  0  0  0  0  0  0  0  0  0  0
   45.6168   33.4098   39.4655 H   0  0  0  0  0  0  0  0  0  0  0  0
   46.8440   35.7547   43.6723 H   0  0  0  0  0  0  0  0  0  0  0  0
  2  1  1  0
  3  4  1  0
  3  2  1  0
  4  5  1  0
  5  6  1  0
  6  7  1  0
  6  1  1  0
  7  8  2  0
  8  9  1  0
 10  9  2  0
 11 10  1  0
 12  7  1  0
 12 11  2  0
 13 20  1  0
 13 17  2  0
 14 15  2  0
 14 13  1  0
 15 16  1  0
 16  2  1  0
 16 17  1  0
 18 23  2  0
 19 18  1  0
 19 20  2  0
 20 21  1  0
 21 22  2  0
 23 22  1  0
  1 24  1  0
  2 25  1  1
  3 26  1  0
  3 27  1  0
  4 28  1  0
  5 29  1  0
  5 30  1  0
  6 31  1  6
  8 32  1  0
  9 33  1  0
 10 34  1  0
 11 35  1  0
 14 36  1  0
 15 37  1  0
 18 38  1  0
 19 39  1  0
 22 40  1  0
M  ISO  8  24   5  25  13  26  13  27  13  28   5  29  13  30  13  31  13
M  ISO  8  32  14  33  14  34  14  35  14  36  14  37  14  38  14  39  14
M  ISO  1  40  14
M  END
>  <minimizedAffinity>  (1) 
-6.17575788

>  <minimizedRMSD>  (1) 
5.28137207

$$$$
