
     RDKit          3D

 41 44  0  0  1  0  0  0  0  0999 V2000
   42.5290   32.0980   39.9190 N   0  0  0  0  0  0  0  0  0  0  0  0
   43.1730   31.6210   41.1460 C   0  0  2  0  0  0  0  0  0  0  0  0
   42.2140   31.4100   42.2540 C   0  0  0  0  0  0  0  0  0  0  0  0
   40.8250   31.5120   41.8340 N   0  0  0  0  0  0  0  0  0  0  0  0
   40.5080   32.6330   41.0290 C   0  0  0  0  0  0  0  0  0  0  0  0
   41.7140   33.2480   40.3700 C   0  0  2  0  0  0  0  0  0  0  0  0
   39.1660   32.6450   38.7850 Cl  0  0  0  0  0  0  0  0  0  0  0  0
   40.2560   33.9890   38.5090 C   0  0  0  0  0  0  0  0  0  0  0  0
   41.3840   34.1700   39.2850 C   0  0  0  0  0  0  0  0  0  0  0  0
   42.2290   35.2420   39.0460 C   0  0  0  0  0  0  0  0  0  0  0  0
   41.9780   36.1460   38.0440 C   0  0  0  0  0  0  0  0  0  0  0  0
   40.8510   35.9980   37.2380 C   0  0  0  0  0  0  0  0  0  0  0  0
   40.0300   34.9060   37.5160 C   0  0  0  0  0  0  0  0  0  0  0  0
   46.0550   33.6500   41.9050 C   0  0  0  0  0  0  0  0  0  0  0  0
   44.9710   34.4320   42.3220 C   0  0  0  0  0  0  0  0  0  0  0  0
   43.7870   33.7560   42.0900 C   0  0  0  0  0  0  0  0  0  0  0  0
   44.1670   32.6030   41.5470 N   0  0  0  0  0  0  0  0  0  0  0  0
   45.4870   32.5390   41.4390 N   0  0  0  0  0  0  0  0  0  0  0  0
   49.3060   35.5430   41.9190 C   0  0  0  0  0  0  0  0  0  0  0  0
   47.9010   35.3170   41.7620 C   0  0  0  0  0  0  0  0  0  0  0  0
   47.4600   34.0420   42.0120 C   0  0  0  0  0  0  0  0  0  0  0  0
   48.3470   33.0800   42.3860 N   0  0  0  0  0  0  0  0  0  0  0  0
   49.6670   33.3210   42.5270 C   0  0  0  0  0  0  0  0  0  0  0  0
   50.1180   34.5600   42.2880 N   0  0  0  0  0  0  0  0  0  0  0  0
   41.9332   31.3648   39.5088 H   0  0  0  0  0  0  0  0  0  0  0  0
   43.6320   30.6442   40.9332 H   0  0  0  0  0  0  0  0  0  0  0  0
   42.3799   30.4071   42.6743 H   0  0  0  0  0  0  0  0  0  0  0  0
   42.3911   32.2022   42.9963 H   0  0  0  0  0  0  0  0  0  0  0  0
   40.5928   30.6627   41.2995 H   0  0  0  0  0  0  0  0  0  0  0  0
   39.8057   32.3134   40.2450 H   0  0  0  0  0  0  0  0  0  0  0  0
   40.0700   33.3966   41.6886 H   0  0  0  0  0  0  0  0  0  0  0  0
   42.2642   33.8892   41.0744 H   0  0  0  0  0  0  0  0  0  0  0  0
   43.1225   35.3716   39.6744 H   0  0  0  0  0  0  0  0  0  0  0  0
   42.6666   36.9874   37.8773 H   0  0  0  0  0  0  0  0  0  0  0  0
   40.6216   36.7043   36.4265 H   0  0  0  0  0  0  0  0  0  0  0  0
   39.1344   34.7704   36.8920 H   0  0  0  0  0  0  0  0  0  0  0  0
   45.0494   35.4346   42.7677 H   0  0  0  0  0  0  0  0  0  0  0  0
   42.7631   34.0951   42.3057 H   0  0  0  0  0  0  0  0  0  0  0  0
   49.7183   36.5453   41.7312 H   0  0  0  0  0  0  0  0  0  0  0  0
   47.2137   36.1203   41.4581 H   0  0  0  0  0  0  0  0  0  0  0  0
   50.3565   32.5196   42.8309 H   0  0  0  0  0  0  0  0  0  0  0  0
  1  6  1  0
  1  2  1  0
  2 17  1  0
  2  3  1  0
  4  3  1  0
  5  4  1  0
  6  5  1  0
  8  7  1  0
  8  9  2  0
  9  6  1  0
 10  9  1  0
 11 10  2  0
 12 13  2  0
 12 11  1  0
 13  8  1  0
 14 21  1  0
 14 15  1  0
 16 15  2  0
 17 16  1  0
 18 17  1  0
 18 14  2  0
 19 24  2  0
 20 19  1  0
 20 21  2  0
 21 22  1  0
 22 23  2  0
 24 23  1  0
  1 25  1  0
  2 26  1  6
  3 27  1  0
  3 28  1  0
  4 29  1  0
  5 30  1  0
  5 31  1  0
  6 32  1  1
 10 33  1  0
 11 34  1  0
 12 35  1  0
 13 36  1  0
 15 37  1  0
 16 38  1  0
 19 39  1  0
 20 40  1  0
 23 41  1  0
M  ISO  8  25   5  26  13  27  13  28  13  29   5  30  13  31  13  32  13
M  ISO  8  33  14  34  14  35  14  36  14  37  14  38  14  39  14  40  14
M  ISO  1  41  14
M  END
>  <minimizedAffinity>  (1) 
-5.50039768

>  <minimizedRMSD>  (1) 
2.58088684

$$$$
