
     RDKit          3D

 43 46  0  0  1  0  0  0  0  0999 V2000
   42.6420   34.0400   38.2770 N   0  0  0  0  0  0  0  0  0  0  0  0
   43.9590   33.3990   38.1950 C   0  0  2  0  0  0  0  0  0  0  0  0
   43.8830   32.0240   37.6300 C   0  0  0  0  0  0  0  0  0  0  0  0
   42.6010   31.7410   37.0270 N   0  0  0  0  0  0  0  0  0  0  0  0
   41.4760   32.0580   37.8300 C   0  0  0  0  0  0  0  0  0  0  0  0
   41.7810   33.0620   38.9250 C   0  0  2  0  0  0  0  0  0  0  0  0
   44.9020   33.6600   41.6630 C   0  0  0  0  0  0  0  0  0  0  0  0
   45.7100   32.6280   41.1700 C   0  0  0  0  0  0  0  0  0  0  0  0
   45.4460   32.4310   39.8270 C   0  0  0  0  0  0  0  0  0  0  0  0
   44.5030   33.3240   39.5370 N   0  0  0  0  0  0  0  0  0  0  0  0
   44.1890   34.0370   40.6020 N   0  0  0  0  0  0  0  0  0  0  0  0
   45.3790   34.0350   45.3760 C   0  0  0  0  0  0  0  0  0  0  0  0
   45.4330   33.4110   44.0900 C   0  0  0  0  0  0  0  0  0  0  0  0
   44.9090   34.1580   43.0400 C   0  0  0  0  0  0  0  0  0  0  0  0
   44.3940   35.3860   43.2670 N   0  0  0  0  0  0  0  0  0  0  0  0
   44.3640   35.9410   44.5040 C   0  0  0  0  0  0  0  0  0  0  0  0
   44.8550   35.2570   45.5300 N   0  0  0  0  0  0  0  0  0  0  0  0
   40.5460   33.8200   41.0020 C   0  0  2  0  0  0  0  0  0  0  0  0
   40.5920   33.6830   39.5260 C   0  0  1  0  0  0  0  0  0  0  0  0
   40.4470   35.1220   39.0970 C   0  0  0  0  0  0  0  0  0  0  0  0
   41.2290   35.7680   40.0840 O   0  0  0  0  0  0  0  0  0  0  0  0
   40.5950   35.3240   41.2270 C   0  0  0  0  0  0  0  0  0  0  0  0
   41.5260   33.2680   41.7490 O   0  0  0  0  0  0  0  0  0  0  0  0
   42.2898   34.2634   37.3352 H   0  0  0  0  0  0  0  0  0  0  0  0
   44.5960   33.9970   37.5267 H   0  0  0  0  0  0  0  0  0  0  0  0
   44.6646   31.9143   36.8638 H   0  0  0  0  0  0  0  0  0  0  0  0
   44.0250   31.3150   38.4589 H   0  0  0  0  0  0  0  0  0  0  0  0
   42.5325   32.2827   36.1536 H   0  0  0  0  0  0  0  0  0  0  0  0
   40.6918   32.4764   37.1819 H   0  0  0  0  0  0  0  0  0  0  0  0
   41.1561   31.1278   38.3224 H   0  0  0  0  0  0  0  0  0  0  0  0
   42.2563   32.5706   39.7867 H   0  0  0  0  0  0  0  0  0  0  0  0
   46.4434   32.0602   41.7613 H   0  0  0  0  0  0  0  0  0  0  0  0
   45.9114   31.6997   39.1498 H   0  0  0  0  0  0  0  0  0  0  0  0
   45.7747   33.5017   46.2530 H   0  0  0  0  0  0  0  0  0  0  0  0
   45.8600   32.4082   43.9414 H   0  0  0  0  0  0  0  0  0  0  0  0
   43.9386   36.9441   44.6549 H   0  0  0  0  0  0  0  0  0  0  0  0
   39.6539   33.2691   41.3346 H   0  0  0  0  0  0  0  0  0  0  0  0
   39.8206   32.9772   39.1843 H   0  0  0  0  0  0  0  0  0  0  0  0
   40.8510   35.2870   38.0873 H   0  0  0  0  0  0  0  0  0  0  0  0
   39.4080   35.4774   39.0317 H   0  0  0  0  0  0  0  0  0  0  0  0
   39.5836   35.7479   41.3126 H   0  0  0  0  0  0  0  0  0  0  0  0
   41.1049   35.6155   42.1570 H   0  0  0  0  0  0  0  0  0  0  0  0
   41.3156   33.3865   42.7091 H   0  0  0  0  0  0  0  0  0  0  0  0
  1  6  1  0
  2  1  1  0
  2 10  1  0
  3  2  1  0
  4  3  1  0
  4  5  1  0
  5  6  1  0
  6 19  1  0
  7 14  1  0
  8  7  1  0
  9  8  2  0
 10  9  1  0
 10 11  1  0
 11  7  2  0
 12 17  2  0
 13 12  1  0
 14 15  1  0
 14 13  2  0
 15 16  2  0
 16 17  1  0
 18 22  1  0
 18 23  1  0
 19 20  1  0
 19 18  1  0
 20 21  1  0
 21 22  1  0
  1 24  1  0
  2 25  1  6
  3 26  1  0
  3 27  1  0
  4 28  1  0
  5 29  1  0
  5 30  1  0
  6 31  1  1
  8 32  1  0
  9 33  1  0
 12 34  1  0
 13 35  1  0
 16 36  1  0
 18 37  1  1
 19 38  1  6
 20 39  1  0
 20 40  1  0
 22 41  1  0
 22 42  1  0
 23 43  1  0
M  ISO  8  24   5  25  13  26  13  27  13  28   5  29  13  30  13  31  13
M  ISO  8  32  14  33  14  34  14  35  14  36  14  37  13  38  13  39  13
M  ISO  4  40  13  41  13  42  13  43   3
M  END
>  <minimizedAffinity>  (1) 
-5.64697599

>  <minimizedRMSD>  (1) 
4.25465393

$$$$
