
     RDKit          3D

 33 35  0  0  1  0  0  0  0  0999 V2000
   42.0900   33.1250   39.8580 N   0  0  0  0  0  0  0  0  0  0  0  0
   41.9250   33.6670   41.2090 C   0  0  2  0  0  0  0  0  0  0  0  0
   40.8890   34.7190   41.2830 C   0  0  0  0  0  0  0  0  0  0  0  0
   40.1150   34.8640   40.0620 N   0  0  0  0  0  0  0  0  0  0  0  0
   40.8640   34.8880   38.8580 C   0  0  0  0  0  0  0  0  0  0  0  0
   42.2420   34.2950   38.9940 C   0  0  1  0  0  0  0  0  0  0  0  0
   45.3400   34.4850   42.0290 C   0  0  0  0  0  0  0  0  0  0  0  0
   44.6120   35.6020   42.4380 C   0  0  0  0  0  0  0  0  0  0  0  0
   43.2660   35.4160   42.1850 C   0  0  0  0  0  0  0  0  0  0  0  0
   43.2000   34.2030   41.6300 N   0  0  0  0  0  0  0  0  0  0  0  0
   44.4100   33.6640   41.5420 N   0  0  0  0  0  0  0  0  0  0  0  0
   49.0620   35.0030   42.0110 C   0  0  0  0  0  0  0  0  0  0  0  0
   47.6790   35.3140   41.8100 C   0  0  0  0  0  0  0  0  0  0  0  0
   46.7880   34.3320   42.1620 C   0  0  0  0  0  0  0  0  0  0  0  0
   47.2400   33.1430   42.6690 N   0  0  0  0  0  0  0  0  0  0  0  0
   48.5590   32.8950   42.8410 C   0  0  0  0  0  0  0  0  0  0  0  0
   49.4390   33.8320   42.5070 N   0  0  0  0  0  0  0  0  0  0  0  0
   43.2800   35.1810   39.3200 N   0  0  0  0  0  0  0  0  0  0  0  0
   42.9274   32.5273   39.8080 H   0  0  0  0  0  0  0  0  0  0  0  0
   41.5902   32.8550   41.8712 H   0  0  0  0  0  0  0  0  0  0  0  0
   40.1998   34.4705   42.1035 H   0  0  0  0  0  0  0  0  0  0  0  0
   41.4111   35.6731   41.4476 H   0  0  0  0  0  0  0  0  0  0  0  0
   39.4563   34.0739   40.0092 H   0  0  0  0  0  0  0  0  0  0  0  0
   40.9659   35.9338   38.5324 H   0  0  0  0  0  0  0  0  0  0  0  0
   40.3189   34.2737   38.1263 H   0  0  0  0  0  0  0  0  0  0  0  0
   42.6181   33.9916   38.0058 H   0  0  0  0  0  0  0  0  0  0  0  0
   45.0469   36.5024   42.8964 H   0  0  0  0  0  0  0  0  0  0  0  0
   42.4377   36.1092   42.3933 H   0  0  0  0  0  0  0  0  0  0  0  0
   49.8264   35.7493   41.7491 H   0  0  0  0  0  0  0  0  0  0  0  0
   47.3512   36.2802   41.3989 H   0  0  0  0  0  0  0  0  0  0  0  0
   48.8973   31.9320   43.2512 H   0  0  0  0  0  0  0  0  0  0  0  0
   43.3624   35.2513   40.3443 H   0  0  0  0  0  0  0  0  0  0  0  0
   44.1658   34.8314   38.9275 H   0  0  0  0  0  0  0  0  0  0  0  0
  1  2  1  0
  2  3  1  0
  2 10  1  0
  4  3  1  0
  5  6  1  0
  5  4  1  0
  6 18  1  0
  6  1  1  0
  7 14  1  0
  7  8  1  0
  9  8  2  0
 10  9  1  0
 11 10  1  0
 11  7  2  0
 12 17  2  0
 13 12  1  0
 13 14  2  0
 14 15  1  0
 15 16  2  0
 17 16  1  0
  1 19  1  0
  2 20  1  1
  3 21  1  0
  3 22  1  0
  4 23  1  0
  5 24  1  0
  5 25  1  0
  6 26  1  6
  8 27  1  0
  9 28  1  0
 12 29  1  0
 13 30  1  0
 16 31  1  0
 18 32  1  0
 18 33  1  0
M  ISO  8  19   5  20  13  21  13  22  13  23   5  24  13  25  13  26  13
M  ISO  7  27  14  28  14  29  14  30  14  31  14  32   5  33   5
M  END
>  <minimizedAffinity>  (1) 
-4.717803

>  <minimizedRMSD>  (1) 
0.492668957

$$$$
