
     RDKit          3D

 35 37  0  0  1  0  0  0  0  0999 V2000
   46.3290   34.0730   43.1660 N   0  0  0  0  0  0  0  0  0  0  0  0
   47.2480   33.5240   42.2340 C   0  0  1  0  0  0  0  0  0  0  0  0
   47.0890   34.0310   40.8340 C   0  0  0  0  0  0  0  0  0  0  0  0
   45.7830   34.2760   40.3940 N   0  0  0  0  0  0  0  0  0  0  0  0
   44.9080   34.8540   41.3270 C   0  0  0  0  0  0  0  0  0  0  0  0
   45.5610   35.1650   42.6380 C   0  0  0  0  0  0  0  0  0  0  0  0
   45.3790   34.1770   45.3430 C   0  0  0  0  0  0  0  0  0  0  0  0
   46.2620   33.5310   44.4590 C   0  0  0  0  0  0  0  0  0  0  0  0
   46.9910   32.4540   44.9310 C   0  0  0  0  0  0  0  0  0  0  0  0
   46.8600   32.0290   46.2200 N   0  0  0  0  0  0  0  0  0  0  0  0
   45.9950   32.6750   47.0620 C   0  0  0  0  0  0  0  0  0  0  0  0
   45.2740   33.7240   46.6270 N   0  0  0  0  0  0  0  0  0  0  0  0
   49.1950   36.2690   41.8130 O   0  0  0  0  0  0  0  0  0  0  0  0
   49.2400   35.0620   42.2140 C   0  0  0  0  0  0  0  0  0  0  0  0
   48.6920   33.7400   42.5900 C   0  0  2  0  0  0  0  0  0  0  0  0
   49.6280   32.8330   41.8240 C   0  0  0  0  0  0  0  0  0  0  0  0
   50.9610   33.3550   42.3840 C   0  0  0  0  0  0  0  0  0  0  0  0
   50.6470   34.7920   42.4530 N   0  0  0  0  0  0  0  0  0  0  0  0
   46.9932   32.4551   42.2849 H   0  0  0  0  0  0  0  0  0  0  0  0
   47.6483   34.9750   40.7569 H   0  0  0  0  0  0  0  0  0  0  0  0
   47.4609   33.2196   40.1911 H   0  0  0  0  0  0  0  0  0  0  0  0
   45.8390   34.9087   39.5832 H   0  0  0  0  0  0  0  0  0  0  0  0
   44.5135   35.7892   40.9029 H   0  0  0  0  0  0  0  0  0  0  0  0
   44.1124   34.1207   41.5252 H   0  0  0  0  0  0  0  0  0  0  0  0
   46.2304   36.0266   42.4983 H   0  0  0  0  0  0  0  0  0  0  0  0
   44.7574   35.3752   43.3591 H   0  0  0  0  0  0  0  0  0  0  0  0
   44.7809   35.0359   45.0045 H   0  0  0  0  0  0  0  0  0  0  0  0
   47.6864   31.9329   44.2566 H   0  0  0  0  0  0  0  0  0  0  0  0
   45.8888   32.3336   48.1023 H   0  0  0  0  0  0  0  0  0  0  0  0
   48.6608   33.5768   43.6774 H   0  0  0  0  0  0  0  0  0  0  0  0
   49.4651   31.7718   42.0636 H   0  0  0  0  0  0  0  0  0  0  0  0
   49.5275   32.8583   40.7289 H   0  0  0  0  0  0  0  0  0  0  0  0
   51.1823   32.9349   43.3762 H   0  0  0  0  0  0  0  0  0  0  0  0
   51.8515   33.0974   41.7919 H   0  0  0  0  0  0  0  0  0  0  0  0
   51.3459   35.5229   42.6486 H   0  0  0  0  0  0  0  0  0  0  0  0
  1  8  1  0
  2 15  1  0
  2  1  1  0
  3  2  1  0
  4  3  1  0
  4  5  1  0
  5  6  1  0
  6  1  1  0
  7 12  2  0
  8  9  2  0
  8  7  1  0
  9 10  1  0
 10 11  2  0
 12 11  1  0
 13 14  2  0
 14 18  1  0
 14 15  1  0
 15 16  1  0
 16 17  1  0
 17 18  1  0
  2 19  1  6
  3 20  1  0
  3 21  1  0
  4 22  1  0
  5 23  1  0
  5 24  1  0
  6 25  1  0
  6 26  1  0
  7 27  1  0
  9 28  1  0
 11 29  1  0
 15 30  1  1
 16 31  1  0
 16 32  1  0
 17 33  1  0
 17 34  1  0
 18 35  1  0
M  ISO  8  19  13  20  13  21  13  22   5  23  13  24  13  25  13  26  13
M  ISO  8  27  14  28  14  29  14  30  13  31  13  32  13  33  13  34  13
M  ISO  1  35  10
M  END
>  <minimizedAffinity>  (1) 
-5.50877619

>  <minimizedRMSD>  (1) 
2.83934093

$$$$
