
     RDKit          3D

 20 21  0  0  0  0  0  0  0  0999 V2000
   45.1120   36.1870   42.9930 C   0  0  0  0  0  0  0  0  0  0  0  0
   45.2360   35.2680   44.1680 C   0  0  0  0  0  0  0  0  0  0  0  0
   46.1170   34.1770   44.0240 C   0  0  0  0  0  0  0  0  0  0  0  0
   46.2440   33.3060   45.1150 C   0  0  0  0  0  0  0  0  0  0  0  0
   45.5240   33.5590   46.2280 N   0  0  0  0  0  0  0  0  0  0  0  0
   44.6790   34.6340   46.3240 C   0  0  0  0  0  0  0  0  0  0  0  0
   44.5490   35.4750   45.2830 N   0  0  0  0  0  0  0  0  0  0  0  0
   44.4480   35.4260   41.8940 C   0  0  0  0  0  0  0  0  0  0  0  0
   43.0790   35.3350   41.7240 C   0  0  0  0  0  0  0  0  0  0  0  0
   42.7610   34.5540   40.6100 C   0  0  0  0  0  0  0  0  0  0  0  0
   43.9900   34.1940   40.1380 N   0  0  0  0  0  0  0  0  0  0  0  0
   44.9440   34.6940   40.8750 N   0  0  0  0  0  0  0  0  0  0  0  0
   44.5037   37.0625   43.2639 H   0  0  0  0  0  0  0  0  0  0  0  0
   46.1029   36.5421   42.6736 H   0  0  0  0  0  0  0  0  0  0  0  0
   46.6816   34.0158   43.0938 H   0  0  0  0  0  0  0  0  0  0  0  0
   46.9153   32.4360   45.0650 H   0  0  0  0  0  0  0  0  0  0  0  0
   44.1096   34.8080   47.2489 H   0  0  0  0  0  0  0  0  0  0  0  0
   42.3374   35.8146   42.3798 H   0  0  0  0  0  0  0  0  0  0  0  0
   41.7686   34.2943   40.2128 H   0  0  0  0  0  0  0  0  0  0  0  0
   44.1445   33.6042   39.3078 H   0  0  0  0  0  0  0  0  0  0  0  0
  1  2  1  0
  2  7  1  0
  3  2  2  0
  3  4  1  0
  4  5  2  0
  5  6  1  0
  7  6  2  0
  8  1  1  0
  9  8  1  0
 10  9  2  0
 11 10  1  0
 11 12  1  0
 12  8  2  0
  1 13  1  0
  1 14  1  0
  3 15  1  0
  4 16  1  0
  6 17  1  0
  9 18  1  0
 10 19  1  0
 11 20  1  0
M  ISO  8  13   8  14   8  15  14  16  14  17  14  18  14  19  14  20   9
M  END
>  <minimizedAffinity>  (1) 
-3.70289803

>  <minimizedRMSD>  (1) 
1.05534303

$$$$
