
     RDKit          3D

 28 29  0  0  1  0  0  0  0  0999 V2000
   45.7520   34.3990   41.7680 N   0  0  0  0  0  0  0  0  0  0  0  0
   47.1070   34.1590   41.3740 C   0  0  1  0  0  0  0  0  0  0  0  0
   47.2890   34.0140   39.9020 C   0  0  0  0  0  0  0  0  0  0  0  0
   46.2720   33.3840   39.1950 N   0  0  0  0  0  0  0  0  0  0  0  0
   44.9590   33.4380   39.6870 C   0  0  0  0  0  0  0  0  0  0  0  0
   44.8230   34.5430   40.7030 C   0  0  0  0  0  0  0  0  0  0  0  0
   44.8000   35.5930   43.5960 C   0  0  0  0  0  0  0  0  0  0  0  0
   45.4990   34.4630   43.1560 C   0  0  0  0  0  0  0  0  0  0  0  0
   45.8770   33.5200   44.1110 C   0  0  0  0  0  0  0  0  0  0  0  0
   45.5620   33.7180   45.4150 N   0  0  0  0  0  0  0  0  0  0  0  0
   44.8840   34.8240   45.8030 C   0  0  0  0  0  0  0  0  0  0  0  0
   44.5070   35.7510   44.9170 N   0  0  0  0  0  0  0  0  0  0  0  0
   47.9560   35.3250   41.8240 C   0  0  0  0  0  0  0  0  0  0  0  0
   48.9330   35.6670   40.9050 O   0  0  0  0  0  0  0  0  0  0  0  0
   47.4034   33.2086   41.8420 H   0  0  0  0  0  0  0  0  0  0  0  0
   47.4073   35.0238   39.4822 H   0  0  0  0  0  0  0  0  0  0  0  0
   48.1630   33.3559   39.7880 H   0  0  0  0  0  0  0  0  0  0  0  0
   46.5263   32.3883   39.1256 H   0  0  0  0  0  0  0  0  0  0  0  0
   44.2669   33.6256   38.8528 H   0  0  0  0  0  0  0  0  0  0  0  0
   44.7192   32.4788   40.1691 H   0  0  0  0  0  0  0  0  0  0  0  0
   44.9992   35.5079   40.2051 H   0  0  0  0  0  0  0  0  0  0  0  0
   43.8087   34.4951   41.1259 H   0  0  0  0  0  0  0  0  0  0  0  0
   44.4854   36.3580   42.8709 H   0  0  0  0  0  0  0  0  0  0  0  0
   46.4290   32.6182   43.8076 H   0  0  0  0  0  0  0  0  0  0  0  0
   44.6391   34.9620   46.8665 H   0  0  0  0  0  0  0  0  0  0  0  0
   47.3019   36.1953   41.9810 H   0  0  0  0  0  0  0  0  0  0  0  0
   48.4660   35.0234   42.7508 H   0  0  0  0  0  0  0  0  0  0  0  0
   49.7508   35.9533   41.3839 H   0  0  0  0  0  0  0  0  0  0  0  0
  1  8  1  0
  2  1  1  0
  2 13  1  0
  3  2  1  0
  4  5  1  0
  4  3  1  0
  5  6  1  0
  6  1  1  0
  7 12  2  0
  8  7  1  0
  8  9  2  0
  9 10  1  0
 10 11  2  0
 12 11  1  0
 14 13  1  0
  2 15  1  1
  3 16  1  0
  3 17  1  0
  4 18  1  0
  5 19  1  0
  5 20  1  0
  6 21  1  0
  6 22  1  0
  7 23  1  0
  9 24  1  0
 11 25  1  0
 13 26  1  0
 13 27  1  0
 14 28  1  0
M  ISO  8  15  13  16  13  17  13  18   5  19  13  20  13  21  13  22  13
M  ISO  6  23  14  24  14  25  14  26   8  27   8  28   3
M  END
>  <minimizedAffinity>  (1) 
-4.17090607

>  <minimizedRMSD>  (1) 
0.27983582

$$$$
