
     RDKit          3D

 25 26  0  0  0  0  0  0  0  0999 V2000
   47.6260   34.3610   39.8380 C   0  0  0  0  0  0  0  0  0  0  0  0
   46.5600   33.6930   40.3940 C   0  0  0  0  0  0  0  0  0  0  0  0
   45.8390   32.8740   39.5820 C   0  0  0  0  0  0  0  0  0  0  0  0
   46.1300   32.6870   38.2380 C   0  0  0  0  0  0  0  0  0  0  0  0
   47.2020   33.3690   37.7140 C   0  0  0  0  0  0  0  0  0  0  0  0
   47.9600   34.2110   38.5010 C   0  0  0  0  0  0  0  0  0  0  0  0
   45.0180   34.9320   43.6130 C   0  0  0  0  0  0  0  0  0  0  0  0
   45.2500   34.7310   42.2430 C   0  0  0  0  0  0  0  0  0  0  0  0
   46.2940   33.9200   41.8040 C   0  0  0  0  0  0  0  0  0  0  0  0
   47.0380   33.3630   42.7890 N   0  0  0  0  0  0  0  0  0  0  0  0
   46.8240   33.5490   44.0860 C   0  0  0  0  0  0  0  0  0  0  0  0
   45.8100   34.3360   44.5040 N   0  0  0  0  0  0  0  0  0  0  0  0
   43.9470   35.7640   44.0010 N   0  0  0  0  0  0  0  0  0  0  0  0
   49.0690   34.9160   37.9560 N   0  0  0  0  0  0  0  0  0  0  0  0
   49.1020   35.9840   41.2730 N   0  0  0  0  0  0  0  0  0  0  0  0
   48.4380   35.2450   40.6280 C   0  0  0  0  0  0  0  0  0  0  0  0
   44.9830   32.3332   40.0118 H   0  0  0  0  0  0  0  0  0  0  0  0
   45.5230   32.0154   37.6131 H   0  0  0  0  0  0  0  0  0  0  0  0
   47.4592   33.2416   36.6521 H   0  0  0  0  0  0  0  0  0  0  0  0
   44.5977   35.2212   41.5053 H   0  0  0  0  0  0  0  0  0  0  0  0
   47.4764   33.0592   44.8239 H   0  0  0  0  0  0  0  0  0  0  0  0
   43.3549   36.2088   43.2851 H   0  0  0  0  0  0  0  0  0  0  0  0
   43.7571   35.9267   45.0002 H   0  0  0  0  0  0  0  0  0  0  0  0
   49.6264   35.5415   38.5551 H   0  0  0  0  0  0  0  0  0  0  0  0
   49.3145   34.8009   36.9623 H   0  0  0  0  0  0  0  0  0  0  0  0
  1  2  2  0
  1 16  1  0
  2  9  1  0
  3  2  1  0
  4  3  2  0
  5  4  1  0
  5  6  2  0
  6  1  1  0
  7 13  1  0
  7 12  2  0
  8  7  1  0
  9  8  2  0
  9 10  1  0
 10 11  2  0
 11 12  1  0
 14  6  1  0
 16 15  3  0
  3 17  1  0
  4 18  1  0
  5 19  1  0
  8 20  1  0
 11 21  1  0
 13 22  1  0
 13 23  1  0
 14 24  1  0
 14 25  1  0
M  ISO  5  17  14  18  14  19  14  20  14  21  14
M  END
>  <minimizedAffinity>  (1) 
-5.04123592

>  <minimizedRMSD>  (1) 
0.480959475

$$$$
