
     RDKit          3D

 39 42  0  0  0  0  0  0  0  0999 V2000
   43.5430   33.0470   41.2670 C   0  0  0  0  0  0  0  0  0  0  0  0
   44.7210   33.2410   41.9740 C   0  0  0  0  0  0  0  0  0  0  0  0
   45.7070   32.3180   41.8310 C   0  0  0  0  0  0  0  0  0  0  0  0
   45.5990   31.2020   41.0220 C   0  0  0  0  0  0  0  0  0  0  0  0
   44.4150   31.0240   40.3240 C   0  0  0  0  0  0  0  0  0  0  0  0
   43.3990   31.9330   40.4420 C   0  0  0  0  0  0  0  0  0  0  0  0
   44.6600   35.5190   44.9860 C   0  0  0  0  0  0  0  0  0  0  0  0
   44.5910   34.3400   44.2100 C   0  0  0  0  0  0  0  0  0  0  0  0
   44.7820   34.4350   42.8140 C   0  0  0  0  0  0  0  0  0  0  0  0
   45.0200   35.6670   42.3080 N   0  0  0  0  0  0  0  0  0  0  0  0
   45.0780   36.7630   43.0720 C   0  0  0  0  0  0  0  0  0  0  0  0
   44.8980   36.6900   44.4090 N   0  0  0  0  0  0  0  0  0  0  0  0
   44.4660   35.3930   46.3710 N   0  0  0  0  0  0  0  0  0  0  0  0
   42.1320   31.7620   39.7080 C   0  0  0  0  0  0  0  0  0  0  0  0
   42.0170   32.3360   38.4580 C   0  0  0  0  0  0  0  0  0  0  0  0
   40.8130   32.1670   37.7720 C   0  0  0  0  0  0  0  0  0  0  0  0
   39.8300   31.4420   38.3890 C   0  0  0  0  0  0  0  0  0  0  0  0
   39.9130   30.8580   39.6300 C   0  0  0  0  0  0  0  0  0  0  0  0
   38.8920   30.1360   40.2090 C   0  0  0  0  0  0  0  0  0  0  0  0
   39.0450   29.5730   41.4670 C   0  0  0  0  0  0  0  0  0  0  0  0
   40.2660   29.7910   42.0690 C   0  0  0  0  0  0  0  0  0  0  0  0
   41.3350   30.4990   41.5590 C   0  0  0  0  0  0  0  0  0  0  0  0
   41.1220   31.0360   40.3040 C   0  0  0  0  0  0  0  0  0  0  0  0
   41.5630   34.7290   41.4150 N   0  0  0  0  0  0  0  0  0  0  0  0
   42.4540   33.9650   41.3570 C   0  0  0  0  0  0  0  0  0  0  0  0
   46.6430   32.4665   42.3895 H   0  0  0  0  0  0  0  0  0  0  0  0
   46.4245   30.4802   40.9353 H   0  0  0  0  0  0  0  0  0  0  0  0
   44.2913   30.1471   39.6715 H   0  0  0  0  0  0  0  0  0  0  0  0
   44.3924   33.3674   44.6840 H   0  0  0  0  0  0  0  0  0  0  0  0
   45.2753   37.7390   42.6047 H   0  0  0  0  0  0  0  0  0  0  0  0
   44.5077   36.2264   46.9748 H   0  0  0  0  0  0  0  0  0  0  0  0
   44.2819   34.4672   46.7831 H   0  0  0  0  0  0  0  0  0  0  0  0
   42.8468   32.9078   38.0169 H   0  0  0  0  0  0  0  0  0  0  0  0
   40.6601   32.6005   36.7726 H   0  0  0  0  0  0  0  0  0  0  0  0
   38.8852   31.3149   37.8403 H   0  0  0  0  0  0  0  0  0  0  0  0
   37.9441   30.0047   39.6667 H   0  0  0  0  0  0  0  0  0  0  0  0
   38.2465   28.9920   41.9516 H   0  0  0  0  0  0  0  0  0  0  0  0
   40.4034   29.3512   43.0679 H   0  0  0  0  0  0  0  0  0  0  0  0
   42.2802   30.6256   42.1073 H   0  0  0  0  0  0  0  0  0  0  0  0
  1 25  1  0
  1  2  2  0
  2  9  1  0
  3  2  1  0
  4  3  2  0
  5  6  2  0
  5  4  1  0
  6  1  1  0
  7 13  1  0
  8  7  2  0
  9  8  1  0
 10  9  2  0
 10 11  1  0
 11 12  2  0
 12  7  1  0
 14 23  1  0
 14  6  1  0
 15 14  2  0
 16 17  2  0
 16 15  1  0
 17 18  1  0
 18 19  1  0
 18 23  2  0
 19 20  2  0
 20 21  1  0
 22 21  2  0
 23 22  1  0
 25 24  3  0
  3 26  1  0
  4 27  1  0
  5 28  1  0
  8 29  1  0
 11 30  1  0
 13 31  1  0
 13 32  1  0
 15 33  1  0
 16 34  1  0
 17 35  1  0
 19 36  1  0
 20 37  1  0
 21 38  1  0
 22 39  1  0
M  ISO  8  26  14  27  14  28  14  29  14  30  14  33  14  34  14  35  14
M  ISO  4  36  14  37  14  38  14  39  14
M  END
>  <minimizedAffinity>  (1) 
-4.8194828

>  <minimizedRMSD>  (1) 
8.27308464

$$$$
