
     RDKit          3D

 46 50  0  0  0  0  0  0  0  0999 V2000
   45.0010   33.9910   40.8230 C   0  0  0  0  0  0  0  0  0  0  0  0
   43.9530   33.5830   40.0510 C   0  0  0  0  0  0  0  0  0  0  0  0
   44.2500   32.9370   38.8810 C   0  0  0  0  0  0  0  0  0  0  0  0
   45.5330   32.6840   38.4520 C   0  0  0  0  0  0  0  0  0  0  0  0
   46.5640   33.1140   39.2620 C   0  0  0  0  0  0  0  0  0  0  0  0
   46.3160   33.7710   40.4540 C   0  0  0  0  0  0  0  0  0  0  0  0
   40.7170   35.3700   40.8390 C   0  0  0  0  0  0  0  0  0  0  0  0
   42.0200   35.1380   40.3520 C   0  0  0  0  0  0  0  0  0  0  0  0
   42.6110   33.8660   40.5370 C   0  0  0  0  0  0  0  0  0  0  0  0
   41.8490   32.9650   41.1840 N   0  0  0  0  0  0  0  0  0  0  0  0
   40.6220   33.2060   41.6350 C   0  0  0  0  0  0  0  0  0  0  0  0
   40.0590   34.4120   41.4610 N   0  0  0  0  0  0  0  0  0  0  0  0
   40.1750   36.6670   40.6260 N   0  0  0  0  0  0  0  0  0  0  0  0
   47.4710   34.1810   41.2250 C   0  0  0  0  0  0  0  0  0  0  0  0
   48.0880   35.3440   40.8020 C   0  0  0  0  0  0  0  0  0  0  0  0
   49.2090   35.9010   41.4110 C   0  0  0  0  0  0  0  0  0  0  0  0
   49.7240   35.2300   42.5100 C   0  0  0  0  0  0  0  0  0  0  0  0
   49.1250   34.0640   42.9530 C   0  0  0  0  0  0  0  0  0  0  0  0
   48.0130   33.5540   42.3120 C   0  0  0  0  0  0  0  0  0  0  0  0
   47.8150   31.2090   42.0500 C   0  0  0  0  0  0  0  0  0  0  0  0
   47.3670   32.3280   42.7590 C   0  0  0  0  0  0  0  0  0  0  0  0
   46.4220   32.1150   43.7390 C   0  0  0  0  0  0  0  0  0  0  0  0
   45.9580   30.8420   43.9840 C   0  0  0  0  0  0  0  0  0  0  0  0
   45.0540   30.4390   44.8800 N   0  0  0  0  0  0  0  0  0  0  0  0
   44.9120   29.0940   44.7640 C   0  0  0  0  0  0  0  0  0  0  0  0
   45.7460   28.6840   43.7810 N   0  0  0  0  0  0  0  0  0  0  0  0
   46.4010   29.7620   43.2880 C   0  0  0  0  0  0  0  0  0  0  0  0
   47.3470   29.9250   42.2980 C   0  0  0  0  0  0  0  0  0  0  0  0
   44.5960   35.2540   43.0870 N   0  0  0  0  0  0  0  0  0  0  0  0
   44.7730   34.6840   42.0750 C   0  0  0  0  0  0  0  0  0  0  0  0
   43.4156   32.6010   38.2478 H   0  0  0  0  0  0  0  0  0  0  0  0
   45.7282   32.1614   37.5040 H   0  0  0  0  0  0  0  0  0  0  0  0
   47.6039   32.9307   38.9538 H   0  0  0  0  0  0  0  0  0  0  0  0
   42.5707   35.9371   39.8341 H   0  0  0  0  0  0  0  0  0  0  0  0
   40.0646   32.4123   42.1540 H   0  0  0  0  0  0  0  0  0  0  0  0
   40.7292   37.3823   40.1340 H   0  0  0  0  0  0  0  0  0  0  0  0
   39.2282   36.8913   40.9637 H   0  0  0  0  0  0  0  0  0  0  0  0
   47.6659   35.8622   39.9283 H   0  0  0  0  0  0  0  0  0  0  0  0
   49.6650   36.8299   41.0380 H   0  0  0  0  0  0  0  0  0  0  0  0
   50.6093   35.6250   43.0299 H   0  0  0  0  0  0  0  0  0  0  0  0
   49.5391   33.5374   43.8255 H   0  0  0  0  0  0  0  0  0  0  0  0
   48.5699   31.3517   41.2627 H   0  0  0  0  0  0  0  0  0  0  0  0
   46.0381   32.9624   44.3259 H   0  0  0  0  0  0  0  0  0  0  0  0
   44.5511   31.0442   45.5446 H   0  0  0  0  0  0  0  0  0  0  0  0
   44.2426   28.4556   45.3592 H   0  0  0  0  0  0  0  0  0  0  0  0
   47.7195   29.0647   41.7225 H   0  0  0  0  0  0  0  0  0  0  0  0
  1 30  1  0
  2  9  1  0
  2  1  2  0
  3  2  1  0
  4  3  2  0
  4  5  1  0
  5  6  2  0
  6  1  1  0
  6 14  1  0
  7 12  2  0
  8  9  2  0
  8  7  1  0
  9 10  1  0
 10 11  2  0
 12 11  1  0
 13  7  1  0
 14 19  1  0
 15 14  2  0
 15 16  1  0
 16 17  2  0
 17 18  1  0
 19 21  1  0
 19 18  2  0
 20 28  2  0
 20 21  1  0
 21 22  2  0
 22 23  1  0
 23 24  1  0
 25 24  1  0
 26 25  2  0
 27 26  1  0
 27 23  2  0
 28 27  1  0
 30 29  3  0
  3 31  1  0
  4 32  1  0
  5 33  1  0
  8 34  1  0
 11 35  1  0
 13 36  1  0
 13 37  1  0
 15 38  1  0
 16 39  1  0
 17 40  1  0
 18 41  1  0
 20 42  1  0
 22 43  1  0
 24 44  1  0
 25 45  1  0
 28 46  1  0
M  ISO  8  31  14  32  14  33  14  34  14  35  14  38  14  39  14  40  14
M  ISO  6  41  14  42  14  43  14  44   9  45  14  46  14
M  END
>  <minimizedAffinity>  (1) 
-6.3919282

>  <minimizedRMSD>  (1) 
0.998454809

$$$$
