
     RDKit          3D

 40 43  0  0  0  0  0  0  0  0999 V2000
   45.1230   33.9550   40.7240 C   0  0  0  0  0  0  0  0  0  0  0  0
   44.0790   33.6310   39.9120 C   0  0  0  0  0  0  0  0  0  0  0  0
   44.3760   33.1170   38.6760 C   0  0  0  0  0  0  0  0  0  0  0  0
   45.6580   32.9180   38.2290 C   0  0  0  0  0  0  0  0  0  0  0  0
   46.6870   33.2550   39.0710 C   0  0  0  0  0  0  0  0  0  0  0  0
   46.4420   33.7750   40.3240 C   0  0  0  0  0  0  0  0  0  0  0  0
   40.8020   35.2750   40.8000 C   0  0  0  0  0  0  0  0  0  0  0  0
   42.1080   35.1070   40.2830 C   0  0  0  0  0  0  0  0  0  0  0  0
   42.7370   33.8580   40.4250 C   0  0  0  0  0  0  0  0  0  0  0  0
   42.0260   32.9060   41.0560 N   0  0  0  0  0  0  0  0  0  0  0  0
   40.7940   33.0890   41.5340 C   0  0  0  0  0  0  0  0  0  0  0  0
   40.1850   34.2800   41.4040 N   0  0  0  0  0  0  0  0  0  0  0  0
   40.2080   36.5460   40.6360 N   0  0  0  0  0  0  0  0  0  0  0  0
   47.6010   34.1010   41.1430 C   0  0  0  0  0  0  0  0  0  0  0  0
   48.1260   35.3600   40.9400 C   0  0  0  0  0  0  0  0  0  0  0  0
   49.2390   35.8400   41.6400 C   0  0  0  0  0  0  0  0  0  0  0  0
   49.8200   34.9930   42.5720 C   0  0  0  0  0  0  0  0  0  0  0  0
   49.3080   33.7430   42.7820 C   0  0  0  0  0  0  0  0  0  0  0  0
   48.2050   33.2930   42.0750 C   0  0  0  0  0  0  0  0  0  0  0  0
   47.5600   31.9460   42.2200 C   0  0  0  0  0  0  0  0  0  0  0  0
   48.0310   30.9550   43.1910 C   0  0  0  0  0  0  0  0  0  0  0  0
   46.7880   31.7220   43.5370 C   0  0  0  0  0  0  0  0  0  0  0  0
   44.7240   34.9400   43.1100 N   0  0  0  0  0  0  0  0  0  0  0  0
   44.9000   34.5020   42.0400 C   0  0  0  0  0  0  0  0  0  0  0  0
   43.5435   32.8504   38.0082 H   0  0  0  0  0  0  0  0  0  0  0  0
   45.8538   32.5024   37.2295 H   0  0  0  0  0  0  0  0  0  0  0  0
   47.7259   33.1078   38.7407 H   0  0  0  0  0  0  0  0  0  0  0  0
   42.6220   35.9387   39.7790 H   0  0  0  0  0  0  0  0  0  0  0  0
   40.2738   32.2606   42.0372 H   0  0  0  0  0  0  0  0  0  0  0  0
   40.7243   37.2979   40.1575 H   0  0  0  0  0  0  0  0  0  0  0  0
   39.2585   36.7209   40.9949 H   0  0  0  0  0  0  0  0  0  0  0  0
   47.6495   36.0152   40.1959 H   0  0  0  0  0  0  0  0  0  0  0  0
   49.6372   36.8491   41.4581 H   0  0  0  0  0  0  0  0  0  0  0  0
   50.6970   35.3287   43.1449 H   0  0  0  0  0  0  0  0  0  0  0  0
   49.7799   33.0833   43.5250 H   0  0  0  0  0  0  0  0  0  0  0  0
   47.3688   31.8880   41.1383 H   0  0  0  0  0  0  0  0  0  0  0  0
   47.9584   29.8838   42.9515 H   0  0  0  0  0  0  0  0  0  0  0  0
   48.9896   30.7866   43.7035 H   0  0  0  0  0  0  0  0  0  0  0  0
   46.8068   32.4842   44.3299 H   0  0  0  0  0  0  0  0  0  0  0  0
   45.7541   31.4706   43.8161 H   0  0  0  0  0  0  0  0  0  0  0  0
  1 24  1  0
  2  9  1  0
  2  1  2  0
  3  2  1  0
  4  3  2  0
  4  5  1  0
  5  6  2  0
  6  1  1  0
  6 14  1  0
  7 12  2  0
  8  9  2  0
  8  7  1  0
  9 10  1  0
 10 11  2  0
 12 11  1  0
 13  7  1  0
 14 19  1  0
 15 14  2  0
 15 16  1  0
 16 17  2  0
 17 18  1  0
 19 20  1  0
 19 18  2  0
 20 21  1  0
 20 22  1  0
 21 22  1  0
 24 23  3  0
  3 25  1  0
  4 26  1  0
  5 27  1  0
  8 28  1  0
 11 29  1  0
 13 30  1  0
 13 31  1  0
 15 32  1  0
 16 33  1  0
 17 34  1  0
 18 35  1  0
 20 36  1  0
 21 37  1  0
 21 38  1  0
 22 39  1  0
 22 40  1  0
M  ISO  8  25  14  26  14  27  14  28  14  29  14  32  14  33  14  34  14
M  ISO  6  35  14  36  13  37  13  38  13  39  13  40  13
M  END
>  <minimizedAffinity>  (1) 
-5.91833305

>  <minimizedRMSD>  (1) 
0.133722588

$$$$
