
     RDKit          3D

 30 31  0  0  0  0  0  0  0  0999 V2000
   46.2600   34.2970   41.3010 C   0  0  0  0  0  0  0  0  0  0  0  0
   47.5280   34.7460   40.9700 C   0  0  0  0  0  0  0  0  0  0  0  0
   48.0620   34.4630   39.7320 C   0  0  0  0  0  0  0  0  0  0  0  0
   47.3180   33.7350   38.8510 C   0  0  0  0  0  0  0  0  0  0  0  0
   46.0590   33.2690   39.1300 C   0  0  0  0  0  0  0  0  0  0  0  0
   45.5540   33.5800   40.4020 C   0  0  0  0  0  0  0  0  0  0  0  0
   44.6620   36.0330   44.2480 C   0  0  0  0  0  0  0  0  0  0  0  0
   45.0900   35.8060   42.9160 C   0  0  0  0  0  0  0  0  0  0  0  0
   45.7720   34.6400   42.6270 C   0  0  0  0  0  0  0  0  0  0  0  0
   45.9840   33.7870   43.6530 N   0  0  0  0  0  0  0  0  0  0  0  0
   45.5790   33.9990   44.9210 C   0  0  0  0  0  0  0  0  0  0  0  0
   44.9090   35.1360   45.2230 N   0  0  0  0  0  0  0  0  0  0  0  0
   48.3190   35.5430   41.9620 C   0  0  0  0  0  0  0  0  0  0  0  0
   49.6430   34.9600   42.2230 C   0  0  0  0  0  0  0  0  0  0  0  0
   49.8400   33.6260   42.2160 C   0  0  0  0  0  0  0  0  0  0  0  0
   51.1250   32.9070   42.4630 C   0  0  0  0  0  0  0  0  0  0  0  0
   49.0674   34.8168   39.4599 H   0  0  0  0  0  0  0  0  0  0  0  0
   47.7505   33.5098   37.8650 H   0  0  0  0  0  0  0  0  0  0  0  0
   45.4789   32.6857   38.3998 H   0  0  0  0  0  0  0  0  0  0  0  0
   44.5486   33.2273   40.6753 H   0  0  0  0  0  0  0  0  0  0  0  0
   44.1184   36.9581   44.4903 H   0  0  0  0  0  0  0  0  0  0  0  0
   44.8830   36.5443   42.1273 H   0  0  0  0  0  0  0  0  0  0  0  0
   45.7909   33.2551   45.7031 H   0  0  0  0  0  0  0  0  0  0  0  0
   48.4530   36.5619   41.5697 H   0  0  0  0  0  0  0  0  0  0  0  0
   47.7615   35.5455   42.9102 H   0  0  0  0  0  0  0  0  0  0  0  0
   50.4928   35.6275   42.4288 H   0  0  0  0  0  0  0  0  0  0  0  0
   48.9598   33.0006   42.0058 H   0  0  0  0  0  0  0  0  0  0  0  0
   51.2908   32.8142   43.5465 H   0  0  0  0  0  0  0  0  0  0  0  0
   51.0769   31.9047   42.0123 H   0  0  0  0  0  0  0  0  0  0  0  0
   51.9540   33.4723   42.0123 H   0  0  0  0  0  0  0  0  0  0  0  0
  1  9  1  0
  2  1  2  0
  2 13  1  0
  3  2  1  0
  4  5  1  0
  4  3  2  0
  5  6  2  0
  6  1  1  0
  7 12  2  0
  8  7  1  0
  9  8  2  0
  9 10  1  0
 10 11  2  0
 11 12  1  0
 13 14  1  0
 15 14  2  0
 15 16  1  0
  3 17  1  0
  4 18  1  0
  5 19  1  0
  6 20  1  0
  7 21  1  0
  8 22  1  0
 11 23  1  0
 13 24  1  0
 13 25  1  0
 14 26  1  0
 15 27  1  0
 16 28  1  0
 16 29  1  0
 16 30  1  0
M  ISO  8  17  14  18  14  19  14  20  14  21  14  22  14  23  14  24   8
M  ISO  4  25   8  28   8  29   8  30   8
M  END
>  <minimizedAffinity>  (1) 
-5.3000555

>  <minimizedRMSD>  (1) 
1.16780388

$$$$
