
     RDKit          3D

 38 40  0  0  0  0  0  0  0  0999 V2000
   41.8980   34.1670   39.7270 C   0  0  0  0  0  0  0  0  0  0  0  0
   42.1430   35.0940   40.7220 C   0  0  0  0  0  0  0  0  0  0  0  0
   41.1160   35.9260   41.1170 C   0  0  0  0  0  0  0  0  0  0  0  0
   39.8940   35.8260   40.5360 C   0  0  0  0  0  0  0  0  0  0  0  0
   39.6170   34.9260   39.5550 C   0  0  0  0  0  0  0  0  0  0  0  0
   40.6710   34.1000   39.1750 C   0  0  0  0  0  0  0  0  0  0  0  0
   44.4340   31.3800   39.5530 C   0  0  0  0  0  0  0  0  0  0  0  0
   43.3360   32.1360   40.0040 C   0  0  0  0  0  0  0  0  0  0  0  0
   43.0140   33.3100   39.3420 C   0  0  0  0  0  0  0  0  0  0  0  0
   43.7840   33.6630   38.2910 N   0  0  0  0  0  0  0  0  0  0  0  0
   44.8340   32.9390   37.8590 C   0  0  0  0  0  0  0  0  0  0  0  0
   45.1600   31.7980   38.4890 N   0  0  0  0  0  0  0  0  0  0  0  0
   43.4900   35.1900   41.3500 C   0  0  0  0  0  0  0  0  0  0  0  0
   43.5860   34.6280   42.6580 N   0  0  0  0  0  0  0  0  0  0  0  0
   44.5990   35.5570   43.7020 S   0  0  0  0  0  0  0  0  0  0  0  0
   44.0210   35.6410   45.0730 O   0  0  0  0  0  0  0  0  0  0  0  0
   44.8110   36.9260   43.1500 O   0  0  0  0  0  0  0  0  0  0  0  0
   46.0830   34.7660   43.7580 O   0  0  0  0  0  0  0  0  0  0  0  0
   46.3480   33.7450   44.6420 C   0  0  0  0  0  0  0  0  0  0  0  0
   47.0650   32.5860   44.5160 C   0  0  0  0  0  0  0  0  0  0  0  0
   47.0000   31.9270   45.7250 C   0  0  0  0  0  0  0  0  0  0  0  0
   46.2290   32.7450   46.5280 C   0  0  0  0  0  0  0  0  0  0  0  0
   45.8730   33.7920   45.8540 O   0  0  0  0  0  0  0  0  0  0  0  0
   41.2884   36.6731   41.9057 H   0  0  0  0  0  0  0  0  0  0  0  0
   39.0937   36.5014   40.8727 H   0  0  0  0  0  0  0  0  0  0  0  0
   38.6223   34.8551   39.0908 H   0  0  0  0  0  0  0  0  0  0  0  0
   40.4932   33.3557   38.3848 H   0  0  0  0  0  0  0  0  0  0  0  0
   44.7037   30.4456   40.0669 H   0  0  0  0  0  0  0  0  0  0  0  0
   42.7432   31.8005   40.8677 H   0  0  0  0  0  0  0  0  0  0  0  0
   45.4221   33.2802   36.9943 H   0  0  0  0  0  0  0  0  0  0  0  0
   44.2076   34.6675   40.7004 H   0  0  0  0  0  0  0  0  0  0  0  0
   43.7026   36.2637   41.4599 H   0  0  0  0  0  0  0  0  0  0  0  0
   42.6423   34.5820   43.0681 H   0  0  0  0  0  0  0  0  0  0  0  0
   44.7428   35.5361   45.7424 H   0  0  0  0  0  0  0  0  0  0  0  0
   44.9108   37.5704   43.8949 H   0  0  0  0  0  0  0  0  0  0  0  0
   47.5956   32.2433   43.6154 H   0  0  0  0  0  0  0  0  0  0  0  0
   47.4599   30.9638   45.9912 H   0  0  0  0  0  0  0  0  0  0  0  0
   45.9599   32.5395   47.5746 H   0  0  0  0  0  0  0  0  0  0  0  0
  1  2  1  0
  2  3  2  0
  2 13  1  0
  4  3  1  0
  5  4  2  0
  6  5  1  0
  6  1  2  0
  7  8  2  0
  9  1  1  0
  9  8  1  0
 10  9  2  0
 11 10  1  0
 11 12  2  0
 12  7  1  0
 13 14  1  0
 14 15  1  0
 15 18  1  0
 15 16  1  0
 17 15  1  0
 18 19  1  0
 19 23  1  0
 20 19  2  0
 20 21  1  0
 21 22  2  0
 23 22  1  0
  3 24  1  0
  4 25  1  0
  5 26  1  0
  6 27  1  0
  7 28  1  0
  8 29  1  0
 11 30  1  0
 13 31  1  0
 13 32  1  0
 14 33  1  0
 16 34  1  0
 17 35  1  0
 20 36  1  0
 21 37  1  0
 22 38  1  0
M  ISO  8  24  14  25  14  26  14  27  14  28  14  29  14  30  14  31   8
M  ISO  7  32   8  33   5  34   3  35   3  36  14  37  14  38  14
M  END
>  <minimizedAffinity>  (1) 
-5.92385435

>  <minimizedRMSD>  (1) 
3.33649397

$$$$
