
     RDKit          3D

 38 39  0  0  0  0  0  0  0  0999 V2000
   43.6560   34.9410   41.8800 C   0  0  0  0  0  0  0  0  0  0  0  0
   43.9030   33.6150   42.1820 C   0  0  0  0  0  0  0  0  0  0  0  0
   44.9640   33.3230   43.0020 C   0  0  0  0  0  0  0  0  0  0  0  0
   45.7540   34.3170   43.5070 C   0  0  0  0  0  0  0  0  0  0  0  0
   45.5290   35.6460   43.2200 C   0  0  0  0  0  0  0  0  0  0  0  0
   44.4570   35.8940   42.3960 C   0  0  0  0  0  0  0  0  0  0  0  0
   40.2380   35.8130   40.5140 C   0  0  0  0  0  0  0  0  0  0  0  0
   41.2630   35.5840   41.4660 C   0  0  0  0  0  0  0  0  0  0  0  0
   42.5190   35.2050   41.0060 C   0  0  0  0  0  0  0  0  0  0  0  0
   42.6860   35.0770   39.6570 N   0  0  0  0  0  0  0  0  0  0  0  0
   41.6910   35.2990   38.7680 C   0  0  0  0  0  0  0  0  0  0  0  0
   40.4770   35.6670   39.2170 N   0  0  0  0  0  0  0  0  0  0  0  0
   43.0380   32.5390   41.6300 C   0  0  0  0  0  0  0  0  0  0  0  0
   42.6900   31.5070   42.5570 N   0  0  0  0  0  0  0  0  0  0  0  0
   41.0230   31.1470   42.5660 S   0  0  0  0  0  0  0  0  0  0  0  0
   40.1930   32.4120   42.4680 O   0  0  0  0  0  0  0  0  0  0  0  0
   40.6360   30.3650   43.7610 O   0  0  0  0  0  0  0  0  0  0  0  0
   40.7070   30.2090   41.1950 O   0  0  0  0  0  0  0  0  0  0  0  0
   40.0830   29.0510   41.6100 C   0  0  0  0  0  0  0  0  0  0  0  0
   40.9630   27.8520   41.1900 C   0  0  0  0  0  0  0  0  0  0  0  0
   42.0790   28.2860   40.5220 O   0  0  0  0  0  0  0  0  0  0  0  0
   45.1813   32.2750   43.2561 H   0  0  0  0  0  0  0  0  0  0  0  0
   46.5953   34.0482   44.1627 H   0  0  0  0  0  0  0  0  0  0  0  0
   46.1621   36.4509   43.6216 H   0  0  0  0  0  0  0  0  0  0  0  0
   44.2382   36.9413   42.1405 H   0  0  0  0  0  0  0  0  0  0  0  0
   39.2360   36.1143   40.8533 H   0  0  0  0  0  0  0  0  0  0  0  0
   41.0694   35.7032   42.5422 H   0  0  0  0  0  0  0  0  0  0  0  0
   41.8723   35.1800   37.6896 H   0  0  0  0  0  0  0  0  0  0  0  0
   42.1074   33.0011   41.2688 H   0  0  0  0  0  0  0  0  0  0  0  0
   43.6222   32.0531   40.8346 H   0  0  0  0  0  0  0  0  0  0  0  0
   43.2081   30.6529   42.3059 H   0  0  0  0  0  0  0  0  0  0  0  0
   39.9793   32.7378   43.3781 H   0  0  0  0  0  0  0  0  0  0  0  0
   40.8840   30.8662   44.5779 H   0  0  0  0  0  0  0  0  0  0  0  0
   39.9661   29.0622   42.7037 H   0  0  0  0  0  0  0  0  0  0  0  0
   39.0865   28.9705   41.1511 H   0  0  0  0  0  0  0  0  0  0  0  0
   41.2717   27.2973   42.0884 H   0  0  0  0  0  0  0  0  0  0  0  0
   40.3804   27.1996   40.5230 H   0  0  0  0  0  0  0  0  0  0  0  0
   42.7714   28.5553   41.1764 H   0  0  0  0  0  0  0  0  0  0  0  0
  1  2  2  0
  1  6  1  0
  2  3  1  0
  3  4  2  0
  5  4  1  0
  6  5  2  0
  7  8  2  0
  9  8  1  0
  9  1  1  0
 10  9  2  0
 11 12  2  0
 11 10  1  0
 12  7  1  0
 13  2  1  0
 13 14  1  0
 14 15  1  0
 15 17  1  0
 16 15  1  0
 18 19  1  0
 18 15  1  0
 20 19  1  0
 21 20  1  0
  3 22  1  0
  4 23  1  0
  5 24  1  0
  6 25  1  0
  7 26  1  0
  8 27  1  0
 11 28  1  0
 13 29  1  0
 13 30  1  0
 14 31  1  0
 16 32  1  0
 17 33  1  0
 19 34  1  0
 19 35  1  0
 20 36  1  0
 20 37  1  0
 21 38  1  0
M  ISO  8  22  14  23  14  24  14  25  14  26  14  27  14  28  14  29   8
M  ISO  8  30   8  31   5  32   3  33   3  34   8  35   8  36   8  37   8
M  ISO  1  38   3
M  END
>  <minimizedAffinity>  (1) 
-4.63846064

>  <minimizedRMSD>  (1) 
0.279913396

$$$$
