
     RDKit          3D

 37 39  0  0  0  0  0  0  0  0999 V2000
   48.4050   33.1050   41.2990 C   0  0  0  0  0  0  0  0  0  0  0  0
   48.0610   34.3410   41.8240 C   0  0  0  0  0  0  0  0  0  0  0  0
   49.0060   35.0890   42.4930 C   0  0  0  0  0  0  0  0  0  0  0  0
   50.2860   34.5790   42.6260 C   0  0  0  0  0  0  0  0  0  0  0  0
   50.5940   33.3630   42.1000 C   0  0  0  0  0  0  0  0  0  0  0  0
   49.6630   32.5870   41.4190 C   0  0  0  0  0  0  0  0  0  0  0  0
   46.6510   34.7480   41.5970 C   0  0  0  0  0  0  0  0  0  0  0  0
   45.9570   34.9430   42.9210 C   0  0  0  0  0  0  0  0  0  0  0  0
   46.0530   33.9000   43.8470 C   0  0  0  0  0  0  0  0  0  0  0  0
   45.4250   34.0650   45.0750 C   0  0  0  0  0  0  0  0  0  0  0  0
   44.7620   35.2180   45.3010 N   0  0  0  0  0  0  0  0  0  0  0  0
   44.6860   36.2120   44.3840 C   0  0  0  0  0  0  0  0  0  0  0  0
   45.2860   36.0750   43.1880 N   0  0  0  0  0  0  0  0  0  0  0  0
   47.5120   32.2860   40.6090 O   0  0  0  0  0  0  0  0  0  0  0  0
   50.0670   31.3530   40.9120 O   0  0  0  0  0  0  0  0  0  0  0  0
   51.9200   31.4120   39.5470 C   0  0  0  0  0  0  0  0  0  0  0  0
   51.3600   30.9680   40.7410 C   0  0  0  0  0  0  0  0  0  0  0  0
   52.1590   30.2200   41.5790 C   0  0  0  0  0  0  0  0  0  0  0  0
   53.4690   29.8920   41.2970 C   0  0  0  0  0  0  0  0  0  0  0  0
   54.0080   30.3380   40.1110 C   0  0  0  0  0  0  0  0  0  0  0  0
   53.2460   31.0860   39.2470 C   0  0  0  0  0  0  0  0  0  0  0  0
   51.3530   32.1820   38.5160 O   0  0  0  0  0  0  0  0  0  0  0  0
   53.9260   31.4620   38.0940 O   0  0  0  0  0  0  0  0  0  0  0  0
   48.7479   36.0723   42.9131 H   0  0  0  0  0  0  0  0  0  0  0  0
   51.0553   35.1580   43.1579 H   0  0  0  0  0  0  0  0  0  0  0  0
   51.6181   32.9792   42.2179 H   0  0  0  0  0  0  0  0  0  0  0  0
   46.6296   35.6909   41.0310 H   0  0  0  0  0  0  0  0  0  0  0  0
   46.1331   33.9623   41.0274 H   0  0  0  0  0  0  0  0  0  0  0  0
   46.6072   32.9796   43.6111 H   0  0  0  0  0  0  0  0  0  0  0  0
   45.4671   33.2775   45.8418 H   0  0  0  0  0  0  0  0  0  0  0  0
   44.1324   37.1333   44.6179 H   0  0  0  0  0  0  0  0  0  0  0  0
   46.5761   32.5787   40.4725 H   0  0  0  0  0  0  0  0  0  0  0  0
   51.7276   29.8645   42.5263 H   0  0  0  0  0  0  0  0  0  0  0  0
   54.0657   29.2915   41.9993 H   0  0  0  0  0  0  0  0  0  0  0  0
   55.0499   30.0950   39.8552 H   0  0  0  0  0  0  0  0  0  0  0  0
   51.8923   32.4170   37.7198 H   0  0  0  0  0  0  0  0  0  0  0  0
   54.8677   31.1862   37.9625 H   0  0  0  0  0  0  0  0  0  0  0  0
  1  6  2  0
  1  2  1  0
  2  3  2  0
  3  4  1  0
  5  4  2  0
  6  5  1  0
  7  2  1  0
  7  8  1  0
  8 13  1  0
  8  9  2  0
  9 10  1  0
 10 11  2  0
 12 11  1  0
 13 12  2  0
 14  1  1  0
 15  6  1  0
 16 17  2  0
 17 15  1  0
 17 18  1  0
 19 18  2  0
 20 19  1  0
 21 16  1  0
 21 20  2  0
 22 16  1  0
 23 21  1  0
  3 24  1  0
  4 25  1  0
  5 26  1  0
  7 27  1  0
  7 28  1  0
  9 29  1  0
 10 30  1  0
 12 31  1  0
 14 32  1  0
 18 33  1  0
 19 34  1  0
 20 35  1  0
 22 36  1  0
 23 37  1  0
M  ISO  8  24  14  25  14  26  14  27   8  28   8  29  14  30  14  31  14
M  ISO  6  32   3  33  14  34  14  35  14  36   3  37   3
M  END
>  <minimizedAffinity>  (1) 
-5.80661011

>  <minimizedRMSD>  (1) 
0.829875886

$$$$
