
     RDKit          3D

 39 41  0  0  1  0  0  0  0  0999 V2000
   43.3480   34.5030   40.7260 C   0  0  0  0  0  0  0  0  0  0  0  0
   43.1130   35.7440   40.7860 O   0  0  0  0  0  0  0  0  0  0  0  0
   42.1760   34.0640   39.9800 N   0  0  0  0  0  0  0  0  0  0  0  0
   42.0390   34.6610   38.6640 C   0  0  0  0  0  0  0  0  0  0  0  0
   41.0110   35.7770   38.8470 C   0  0  0  0  0  0  0  0  0  0  0  0
   39.9920   35.2870   39.8690 C   0  0  0  0  0  0  0  0  0  0  0  0
   39.8520   33.7640   39.8360 C   0  0  0  0  0  0  0  0  0  0  0  0
   41.1290   33.1200   40.3680 C   0  0  2  0  0  0  0  0  0  0  0  0
   40.6610   31.6270   42.2950 C   0  0  0  0  0  0  0  0  0  0  0  0
   40.3510   30.7590   41.4090 O   0  0  0  0  0  0  0  0  0  0  0  0
   41.0820   32.9020   41.7800 N   0  0  0  0  0  0  0  0  0  0  0  0
   44.4140   33.8120   41.2310 O   0  0  0  0  0  0  0  0  0  0  0  0
   45.7400   34.1320   41.0860 C   0  0  0  0  0  0  0  0  0  0  0  0
   46.3830   34.7500   42.1650 C   0  0  0  0  0  0  0  0  0  0  0  0
   47.7440   35.0720   41.9990 C   0  0  0  0  0  0  0  0  0  0  0  0
   48.3450   34.7650   40.8140 N   0  0  0  0  0  0  0  0  0  0  0  0
   47.6840   34.1750   39.8180 C   0  0  0  0  0  0  0  0  0  0  0  0
   46.3750   33.8540   39.9470 N   0  0  0  0  0  0  0  0  0  0  0  0
   45.6500   35.0360   43.3910 C   0  0  0  0  0  0  0  0  0  0  0  0
   45.0400   36.2500   43.6330 C   0  0  0  0  0  0  0  0  0  0  0  0
   44.4770   36.0810   44.8870 C   0  0  0  0  0  0  0  0  0  0  0  0
   44.7350   34.8480   45.3590 N   0  0  0  0  0  0  0  0  0  0  0  0
   45.4460   34.2300   44.4390 N   0  0  0  0  0  0  0  0  0  0  0  0
   41.6792   33.9181   37.9370 H   0  0  0  0  0  0  0  0  0  0  0  0
   42.9972   35.0383   38.2773 H   0  0  0  0  0  0  0  0  0  0  0  0
   41.5053   36.6883   39.2146 H   0  0  0  0  0  0  0  0  0  0  0  0
   40.5216   36.0179   37.8918 H   0  0  0  0  0  0  0  0  0  0  0  0
   40.3175   35.5942   40.8738 H   0  0  0  0  0  0  0  0  0  0  0  0
   39.0154   35.7286   39.6214 H   0  0  0  0  0  0  0  0  0  0  0  0
   39.0007   33.4611   40.4633 H   0  0  0  0  0  0  0  0  0  0  0  0
   39.6819   33.4355   38.8001 H   0  0  0  0  0  0  0  0  0  0  0  0
   41.2980   32.1137   39.9570 H   0  0  0  0  0  0  0  0  0  0  0  0
   40.6094   31.4140   43.3730 H   0  0  0  0  0  0  0  0  0  0  0  0
   41.3493   33.6570   42.4276 H   0  0  0  0  0  0  0  0  0  0  0  0
   48.3093   35.5600   42.8067 H   0  0  0  0  0  0  0  0  0  0  0  0
   48.2090   33.9459   38.8789 H   0  0  0  0  0  0  0  0  0  0  0  0
   45.0085   37.1386   42.9854 H   0  0  0  0  0  0  0  0  0  0  0  0
   43.8991   36.8485   45.4227 H   0  0  0  0  0  0  0  0  0  0  0  0
   44.4344   34.4618   46.2653 H   0  0  0  0  0  0  0  0  0  0  0  0
  1  2  2  0
  1 12  1  0
  3  8  1  0
  3  1  1  0
  4  5  1  0
  4  3  1  0
  5  6  1  0
  7  6  1  0
  7  8  1  0
  8 11  1  0
 10  9  2  0
 11  9  1  0
 13 12  1  0
 13 14  1  0
 14 19  1  0
 15 14  2  0
 16 15  1  0
 17 18  1  0
 17 16  2  0
 18 13  2  0
 19 20  1  0
 19 23  2  0
 20 21  2  0
 21 22  1  0
 23 22  1  0
  4 24  1  0
  4 25  1  0
  5 26  1  0
  5 27  1  0
  6 28  1  0
  6 29  1  0
  7 30  1  0
  7 31  1  0
  8 32  1  6
  9 33  1  0
 11 34  1  0
 15 35  1  0
 17 36  1  0
 20 37  1  0
 21 38  1  0
 22 39  1  0
M  ISO  8  24  13  25  13  26  13  27  13  28  13  29  13  30  13  31  13
M  ISO  7  32  13  33   6  35  14  36  14  37  14  38  14  39   9
M  END
>  <minimizedAffinity>  (1) 
-6.39552355

>  <minimizedRMSD>  (1) 
1.0655309

$$$$
