
     RDKit          3D

 47 50  0  0  1  0  0  0  0  0999 V2000
   43.3610   34.4870   40.7660 C   0  0  0  0  0  0  0  0  0  0  0  0
   43.3060   35.7270   40.4830 O   0  0  0  0  0  0  0  0  0  0  0  0
   42.0010   34.0930   40.4430 N   0  0  0  0  0  0  0  0  0  0  0  0
   41.6150   34.3100   39.0700 C   0  0  0  0  0  0  0  0  0  0  0  0
   40.8070   35.6250   39.0840 C   0  0  0  0  0  0  0  0  0  0  0  0
   40.0290   35.6320   40.4000 C   0  0  0  0  0  0  0  0  0  0  0  0
   39.6880   34.2230   40.8360 C   0  0  0  0  0  0  0  0  0  0  0  0
   40.9740   33.5160   41.2880 C   0  0  1  0  0  0  0  0  0  0  0  0
   40.8810   32.0920   41.1330 N   0  0  0  0  0  0  0  0  0  0  0  0
   41.7200   31.4760   42.1400 C   0  0  0  0  0  0  0  0  0  0  0  0
   41.1860   30.0500   42.2210 C   0  0  0  0  0  0  0  0  0  0  0  0
   39.7160   30.1650   41.9370 C   0  0  0  0  0  0  0  0  0  0  0  0
   39.5970   31.5430   41.3780 C   0  0  0  0  0  0  0  0  0  0  0  0
   44.4370   33.8050   41.2350 O   0  0  0  0  0  0  0  0  0  0  0  0
   45.7620   34.1170   41.0840 C   0  0  0  0  0  0  0  0  0  0  0  0
   46.4010   34.7360   42.1690 C   0  0  0  0  0  0  0  0  0  0  0  0
   47.7570   35.0530   42.0040 C   0  0  0  0  0  0  0  0  0  0  0  0
   48.3610   34.7430   40.8170 N   0  0  0  0  0  0  0  0  0  0  0  0
   47.7030   34.1560   39.8250 C   0  0  0  0  0  0  0  0  0  0  0  0
   46.4020   33.8400   39.9520 N   0  0  0  0  0  0  0  0  0  0  0  0
   45.6650   35.0210   43.3870 C   0  0  0  0  0  0  0  0  0  0  0  0
   45.0290   36.2460   43.6180 C   0  0  0  0  0  0  0  0  0  0  0  0
   44.4700   36.0850   44.8580 C   0  0  0  0  0  0  0  0  0  0  0  0
   44.7370   34.8670   45.3480 N   0  0  0  0  0  0  0  0  0  0  0  0
   45.4640   34.2360   44.4410 N   0  0  0  0  0  0  0  0  0  0  0  0
   40.9932   33.4782   38.7073 H   0  0  0  0  0  0  0  0  0  0  0  0
   42.4860   34.3679   38.4006 H   0  0  0  0  0  0  0  0  0  0  0  0
   41.4850   36.4899   39.0370 H   0  0  0  0  0  0  0  0  0  0  0  0
   40.1317   35.6904   38.2182 H   0  0  0  0  0  0  0  0  0  0  0  0
   40.6420   36.1108   41.1778 H   0  0  0  0  0  0  0  0  0  0  0  0
   39.0923   36.1890   40.2504 H   0  0  0  0  0  0  0  0  0  0  0  0
   38.9730   34.2580   41.6712 H   0  0  0  0  0  0  0  0  0  0  0  0
   39.2359   33.6730   39.9975 H   0  0  0  0  0  0  0  0  0  0  0  0
   41.1845   33.6611   42.3579 H   0  0  0  0  0  0  0  0  0  0  0  0
   42.7758   31.4840   41.8313 H   0  0  0  0  0  0  0  0  0  0  0  0
   41.6883   32.0019   43.1056 H   0  0  0  0  0  0  0  0  0  0  0  0
   41.6753   29.4114   41.4708 H   0  0  0  0  0  0  0  0  0  0  0  0
   41.3813   29.5923   43.2020 H   0  0  0  0  0  0  0  0  0  0  0  0
   39.3933   29.4105   41.2045 H   0  0  0  0  0  0  0  0  0  0  0  0
   39.0858   29.9973   42.8228 H   0  0  0  0  0  0  0  0  0  0  0  0
   39.0620   32.1805   42.0973 H   0  0  0  0  0  0  0  0  0  0  0  0
   39.0434   31.4952   40.4286 H   0  0  0  0  0  0  0  0  0  0  0  0
   48.3225   35.5404   42.8118 H   0  0  0  0  0  0  0  0  0  0  0  0
   48.2287   33.9250   38.8868 H   0  0  0  0  0  0  0  0  0  0  0  0
   44.9879   37.1273   42.9610 H   0  0  0  0  0  0  0  0  0  0  0  0
   43.8810   36.8526   45.3813 H   0  0  0  0  0  0  0  0  0  0  0  0
   44.4336   34.4929   46.2585 H   0  0  0  0  0  0  0  0  0  0  0  0
  1 14  1  0
  2  1  2  0
  3  1  1  0
  3  8  1  0
  4  5  1  0
  4  3  1  0
  5  6  1  0
  6  7  1  0
  7  8  1  0
  9  8  1  0
  9 13  1  0
  9 10  1  0
 10 11  1  0
 12 11  1  0
 13 12  1  0
 15 14  1  0
 15 16  1  0
 16 21  1  0
 17 16  2  0
 18 17  1  0
 19 20  1  0
 19 18  2  0
 20 15  2  0
 21 22  1  0
 21 25  2  0
 22 23  2  0
 23 24  1  0
 25 24  1  0
  4 26  1  0
  4 27  1  0
  5 28  1  0
  5 29  1  0
  6 30  1  0
  6 31  1  0
  7 32  1  0
  7 33  1  0
  8 34  1  1
 10 35  1  0
 10 36  1  0
 11 37  1  0
 11 38  1  0
 12 39  1  0
 12 40  1  0
 13 41  1  0
 13 42  1  0
 17 43  1  0
 19 44  1  0
 22 45  1  0
 23 46  1  0
 24 47  1  0
M  ISO  8  26  13  27  13  28  13  29  13  30  13  31  13  32  13  33  13
M  ISO  8  34  13  35  13  36  13  37  13  38  13  39  13  40  13  41  13
M  ISO  6  42  13  43  14  44  14  45  14  46  14  47   9
M  END
>  <minimizedAffinity>  (1) 
-6.65247059

>  <minimizedRMSD>  (1) 
0.148730218

$$$$
