
     RDKit          3D

 42 45  0  0  1  0  0  0  0  0999 V2000
   43.2990   34.4090   40.7160 C   0  0  0  0  0  0  0  0  0  0  0  0
   43.2450   35.6020   40.2580 O   0  0  0  0  0  0  0  0  0  0  0  0
   41.9360   34.0020   40.4370 N   0  0  0  0  0  0  0  0  0  0  0  0
   41.5520   34.0260   39.0460 C   0  0  0  0  0  0  0  0  0  0  0  0
   40.7490   35.3230   38.8870 C   0  0  0  0  0  0  0  0  0  0  0  0
   39.9580   35.5020   40.1910 C   0  0  0  0  0  0  0  0  0  0  0  0
   39.6270   34.1470   40.8230 C   0  0  0  0  0  0  0  0  0  0  0  0
   40.9060   33.5710   41.3970 C   0  0  1  0  0  0  0  0  0  0  0  0
   40.9220   32.2060   41.6510 C   0  0  0  0  0  0  0  0  0  0  0  0
   41.8390   31.2660   42.0660 C   0  0  0  0  0  0  0  0  0  0  0  0
   41.5410   29.9450   42.2310 C   0  0  0  0  0  0  0  0  0  0  0  0
   40.0990   29.5820   41.9160 C   0  0  0  0  0  0  0  0  0  0  0  0
   39.4210   31.2840   41.4240 S   0  0  0  0  0  0  0  0  0  0  0  0
   44.3620   33.7760   41.2850 O   0  0  0  0  0  0  0  0  0  0  0  0
   45.6940   34.1030   41.1190 C   0  0  0  0  0  0  0  0  0  0  0  0
   46.3470   34.7350   42.1910 C   0  0  0  0  0  0  0  0  0  0  0  0
   47.6980   35.0560   41.9970 C   0  0  0  0  0  0  0  0  0  0  0  0
   48.2890   34.7440   40.8020 N   0  0  0  0  0  0  0  0  0  0  0  0
   47.6180   34.1470   39.8270 C   0  0  0  0  0  0  0  0  0  0  0  0
   46.3170   33.8190   39.9720 N   0  0  0  0  0  0  0  0  0  0  0  0
   45.6280   35.0210   43.4140 C   0  0  0  0  0  0  0  0  0  0  0  0
   44.9930   36.2380   43.6440 C   0  0  0  0  0  0  0  0  0  0  0  0
   44.4430   36.1000   44.8900 C   0  0  0  0  0  0  0  0  0  0  0  0
   44.7240   34.8720   45.3970 N   0  0  0  0  0  0  0  0  0  0  0  0
   45.4370   34.2550   44.4760 N   0  0  0  0  0  0  0  0  0  0  0  0
   42.4409   34.0381   38.3982 H   0  0  0  0  0  0  0  0  0  0  0  0
   40.9698   33.1378   38.7592 H   0  0  0  0  0  0  0  0  0  0  0  0
   41.4277   36.1749   38.7331 H   0  0  0  0  0  0  0  0  0  0  0  0
   40.0789   35.2744   38.0160 H   0  0  0  0  0  0  0  0  0  0  0  0
   40.5596   36.0915   40.8985 H   0  0  0  0  0  0  0  0  0  0  0  0
   39.0157   36.0206   39.9607 H   0  0  0  0  0  0  0  0  0  0  0  0
   38.8854   34.2804   41.6244 H   0  0  0  0  0  0  0  0  0  0  0  0
   39.2074   33.4662   40.0677 H   0  0  0  0  0  0  0  0  0  0  0  0
   41.0662   33.9451   42.4190 H   0  0  0  0  0  0  0  0  0  0  0  0
   42.8665   31.5981   42.2756 H   0  0  0  0  0  0  0  0  0  0  0  0
   42.2826   29.2041   42.5643 H   0  0  0  0  0  0  0  0  0  0  0  0
   39.5916   28.6071   41.9607 H   0  0  0  0  0  0  0  0  0  0  0  0
   48.2742   35.5509   42.7926 H   0  0  0  0  0  0  0  0  0  0  0  0
   48.1312   33.9146   38.8822 H   0  0  0  0  0  0  0  0  0  0  0  0
   44.9442   37.1113   42.9769 H   0  0  0  0  0  0  0  0  0  0  0  0
   43.8567   36.8739   45.4070 H   0  0  0  0  0  0  0  0  0  0  0  0
   44.4384   34.4990   46.3137 H   0  0  0  0  0  0  0  0  0  0  0  0
  1 14  1  0
  2  1  2  0
  3  1  1  0
  3  8  1  0
  4  3  1  0
  5  4  1  0
  5  6  1  0
  6  7  1  0
  7  8  1  0
  8  9  1  0
  9 10  2  0
 10 11  1  0
 12 11  2  0
 13  9  1  0
 13 12  1  0
 15 14  1  0
 15 16  1  0
 16 21  1  0
 17 16  2  0
 18 17  1  0
 19 20  1  0
 19 18  2  0
 20 15  2  0
 21 22  1  0
 21 25  2  0
 22 23  2  0
 23 24  1  0
 25 24  1  0
  4 26  1  0
  4 27  1  0
  5 28  1  0
  5 29  1  0
  6 30  1  0
  6 31  1  0
  7 32  1  0
  7 33  1  0
  8 34  1  1
 10 35  1  0
 11 36  1  0
 12 37  1  0
 17 38  1  0
 19 39  1  0
 22 40  1  0
 23 41  1  0
 24 42  1  0
M  ISO  8  26  13  27  13  28  13  29  13  30  13  31  13  32  13  33  13
M  ISO  8  34  13  35  14  36  14  37  14  38  14  39  14  40  14  41  14
M  ISO  1  42   9
M  END
>  <minimizedAffinity>  (1) 
-6.58164883

>  <minimizedRMSD>  (1) 
0.50759089

$$$$
