
     RDKit          3D

 30 31  0  0  0  0  0  0  0  0999 V2000
   47.8030   35.3250   41.9070 C   0  0  0  0  0  0  0  0  0  0  0  0
   48.7080   34.5540   40.9850 C   0  0  0  0  0  0  0  0  0  0  0  0
   48.2050   34.4760   39.5870 C   0  0  0  0  0  0  0  0  0  0  0  0
   48.0980   33.0980   39.0320 C   0  0  0  0  0  0  0  0  0  0  0  0
   48.9740   32.1610   39.4620 O   0  0  0  0  0  0  0  0  0  0  0  0
   49.6630   32.3780   40.6140 C   0  0  0  0  0  0  0  0  0  0  0  0
   48.8200   33.1540   41.5910 C   0  0  0  0  0  0  0  0  0  0  0  0
   46.3610   34.8330   41.8360 C   0  0  0  0  0  0  0  0  0  0  0  0
   44.4620   35.9740   44.8970 C   0  0  0  0  0  0  0  0  0  0  0  0
   44.9870   35.9410   43.5940 C   0  0  0  0  0  0  0  0  0  0  0  0
   45.8030   34.8740   43.2090 C   0  0  0  0  0  0  0  0  0  0  0  0
   46.0450   33.9030   44.1520 N   0  0  0  0  0  0  0  0  0  0  0  0
   45.5260   33.9750   45.3790 C   0  0  0  0  0  0  0  0  0  0  0  0
   44.7430   34.9850   45.7680 N   0  0  0  0  0  0  0  0  0  0  0  0
   48.1667   35.2109   42.9388 H   0  0  0  0  0  0  0  0  0  0  0  0
   47.8179   36.3794   41.5940 H   0  0  0  0  0  0  0  0  0  0  0  0
   49.6793   35.0644   40.9073 H   0  0  0  0  0  0  0  0  0  0  0  0
   47.2053   34.9340   39.5581 H   0  0  0  0  0  0  0  0  0  0  0  0
   48.9445   35.0013   38.9647 H   0  0  0  0  0  0  0  0  0  0  0  0
   48.2156   33.1768   37.9412 H   0  0  0  0  0  0  0  0  0  0  0  0
   47.1213   32.7384   39.3880 H   0  0  0  0  0  0  0  0  0  0  0  0
   49.9372   31.4106   41.0602 H   0  0  0  0  0  0  0  0  0  0  0  0
   50.5688   32.9583   40.3844 H   0  0  0  0  0  0  0  0  0  0  0  0
   49.3081   33.1960   42.5759 H   0  0  0  0  0  0  0  0  0  0  0  0
   47.8352   32.6902   41.7494 H   0  0  0  0  0  0  0  0  0  0  0  0
   45.7744   35.4864   41.1734 H   0  0  0  0  0  0  0  0  0  0  0  0
   46.3223   33.8096   41.4346 H   0  0  0  0  0  0  0  0  0  0  0  0
   43.8189   36.8107   45.2073 H   0  0  0  0  0  0  0  0  0  0  0  0
   44.7575   36.7484   42.8830 H   0  0  0  0  0  0  0  0  0  0  0  0
   45.7513   33.1728   46.0971 H   0  0  0  0  0  0  0  0  0  0  0  0
  2  7  1  0
  2  1  1  0
  3  2  1  0
  4  5  1  0
  4  3  1  0
  5  6  1  0
  6  7  1  0
  8  1  1  0
  8 11  1  0
  9 14  2  0
 10  9  1  0
 11 10  2  0
 11 12  1  0
 12 13  2  0
 13 14  1  0
  1 15  1  0
  1 16  1  0
  2 17  1  0
  3 18  1  0
  3 19  1  0
  4 20  1  0
  4 21  1  0
  6 22  1  0
  6 23  1  0
  7 24  1  0
  7 25  1  0
  8 26  1  0
  8 27  1  0
  9 28  1  0
 10 29  1  0
 13 30  1  0
M  ISO  8  15   8  16   8  17  13  18  13  19  13  20  13  21  13  22  13
M  ISO  8  23  13  24  13  25  13  26   8  27   8  28  14  29  14  30  14
M  END
>  <minimizedAffinity>  (1) 
-4.37503386

>  <minimizedRMSD>  (1) 
2.18758392

$$$$
