
     RDKit          3D

 37 38  0  0  1  0  0  0  0  0999 V2000
   48.0790   34.0450   40.9930 N   0  0  0  0  0  0  0  0  0  0  0  0
   48.7260   35.2310   41.4400 C   0  0  0  0  0  0  0  0  0  0  0  0
   49.7640   35.0940   42.5080 C   0  0  0  0  0  0  0  0  0  0  0  0
   50.5240   33.7980   42.4930 C   0  0  0  0  0  0  0  0  0  0  0  0
   50.1350   32.9340   41.3610 C   0  0  0  0  0  0  0  0  0  0  0  0
   48.5850   32.8040   41.3760 C   0  0  2  0  0  0  0  0  0  0  0  0
   46.6750   34.1790   40.8160 C   0  0  0  0  0  0  0  0  0  0  0  0
   45.9170   33.3490   41.7840 C   0  0  0  0  0  0  0  0  0  0  0  0
   44.7780   36.3350   43.7600 C   0  0  0  0  0  0  0  0  0  0  0  0
   45.1720   35.5140   42.7000 C   0  0  0  0  0  0  0  0  0  0  0  0
   45.5020   34.2000   42.9400 C   0  0  0  0  0  0  0  0  0  0  0  0
   45.4260   33.7660   44.2070 N   0  0  0  0  0  0  0  0  0  0  0  0
   45.0440   34.5670   45.2220 C   0  0  0  0  0  0  0  0  0  0  0  0
   44.7190   35.8510   45.0080 N   0  0  0  0  0  0  0  0  0  0  0  0
   48.4210   31.6970   40.3300 C   0  0  0  0  0  0  0  0  0  0  0  0
   49.3900   31.9080   39.1660 C   0  0  0  0  0  0  0  0  0  0  0  0
   49.2117   35.6900   40.5663 H   0  0  0  0  0  0  0  0  0  0  0  0
   47.9262   35.8274   41.9032 H   0  0  0  0  0  0  0  0  0  0  0  0
   50.4867   35.9147   42.3886 H   0  0  0  0  0  0  0  0  0  0  0  0
   49.2245   35.1227   43.4662 H   0  0  0  0  0  0  0  0  0  0  0  0
   51.5988   34.0190   42.4164 H   0  0  0  0  0  0  0  0  0  0  0  0
   50.2901   33.2597   43.4233 H   0  0  0  0  0  0  0  0  0  0  0  0
   50.5953   31.9411   41.4721 H   0  0  0  0  0  0  0  0  0  0  0  0
   50.4759   33.3686   40.4098 H   0  0  0  0  0  0  0  0  0  0  0  0
   48.0724   32.5593   42.3180 H   0  0  0  0  0  0  0  0  0  0  0  0
   46.3972   35.2340   40.9571 H   0  0  0  0  0  0  0  0  0  0  0  0
   46.4237   33.8369   39.8012 H   0  0  0  0  0  0  0  0  0  0  0  0
   45.0243   32.9340   41.2932 H   0  0  0  0  0  0  0  0  0  0  0  0
   46.5515   32.5242   42.1407 H   0  0  0  0  0  0  0  0  0  0  0  0
   44.5145   37.3857   43.5685 H   0  0  0  0  0  0  0  0  0  0  0  0
   45.2181   35.9168   41.6774 H   0  0  0  0  0  0  0  0  0  0  0  0
   44.9980   34.1608   46.2432 H   0  0  0  0  0  0  0  0  0  0  0  0
   48.6260   30.7233   40.7990 H   0  0  0  0  0  0  0  0  0  0  0  0
   47.3915   31.7242   39.9435 H   0  0  0  0  0  0  0  0  0  0  0  0
   50.3937   32.1266   39.5595 H   0  0  0  0  0  0  0  0  0  0  0  0
   49.4278   30.9970   38.5506 H   0  0  0  0  0  0  0  0  0  0  0  0
   49.0456   32.7522   38.5506 H   0  0  0  0  0  0  0  0  0  0  0  0
  1  6  1  0
  1  2  1  0
  2  3  1  0
  4  3  1  0
  5  6  1  0
  5  4  1  0
  7  1  1  0
  7  8  1  0
  8 11  1  0
  9 14  2  0
 10 11  2  0
 10  9  1  0
 11 12  1  0
 12 13  2  0
 14 13  1  0
 15  6  1  0
 16 15  1  0
  2 17  1  0
  2 18  1  0
  3 19  1  0
  3 20  1  0
  4 21  1  0
  4 22  1  0
  5 23  1  0
  5 24  1  0
  6 25  1  1
  7 26  1  0
  7 27  1  0
  8 28  1  0
  8 29  1  0
  9 30  1  0
 10 31  1  0
 13 32  1  0
 15 33  1  0
 15 34  1  0
 16 35  1  0
 16 36  1  0
 16 37  1  0
M  ISO  8  17  13  18  13  19  13  20  13  21  13  22  13  23  13  24  13
M  ISO  8  25  13  26   8  27   8  28   8  29   8  30  14  31  14  32  14
M  ISO  5  33   8  34   8  35   8  36   8  37   8
M  END
>  <minimizedAffinity>  (1) 
-4.33763456

>  <minimizedRMSD>  (1) 
2.64174318

$$$$
