
     RDKit          3D

 44 46  0  0  1  0  0  0  0  0999 V2000
   46.7070   34.3860   43.4500 N   0  0  0  0  0  0  0  0  0  0  0  0
   46.4180   34.9020   42.1580 C   0  0  0  0  0  0  0  0  0  0  0  0
   44.9540   34.9030   41.7800 C   0  0  0  0  0  0  0  0  0  0  0  0
   44.0150   35.1330   42.9340 C   0  0  0  0  0  0  0  0  0  0  0  0
   44.7610   35.4000   44.2180 C   0  0  0  0  0  0  0  0  0  0  0  0
   45.6910   34.1440   44.3620 C   0  0  2  0  0  0  0  0  0  0  0  0
   47.8930   33.5840   43.5090 C   0  0  0  0  0  0  0  0  0  0  0  0
   47.6760   32.3310   42.7290 C   0  0  0  0  0  0  0  0  0  0  0  0
   51.2120   32.2040   41.4580 C   0  0  0  0  0  0  0  0  0  0  0  0
   50.1020   32.4100   42.2970 C   0  0  0  0  0  0  0  0  0  0  0  0
   48.8400   32.1090   41.8310 C   0  0  0  0  0  0  0  0  0  0  0  0
   48.7350   31.6300   40.5860 N   0  0  0  0  0  0  0  0  0  0  0  0
   49.8050   31.4370   39.7900 C   0  0  0  0  0  0  0  0  0  0  0  0
   51.0480   31.7210   40.2160 N   0  0  0  0  0  0  0  0  0  0  0  0
   46.1430   34.2830   45.6740 O   0  0  0  0  0  0  0  0  0  0  0  0
   45.7470   31.6560   45.6340 O   0  0  0  0  0  0  0  0  0  0  0  0
   46.0660   32.8470   46.5430 P   0  0  2  0  0  0  0  0  0  0  0  0
   44.7060   32.9870   47.5700 O   0  0  0  0  0  0  0  0  0  0  0  0
   47.4110   32.5960   47.4820 O   0  0  0  0  0  0  0  0  0  0  0  0
   47.2930   31.6480   48.4650 C   0  0  0  0  0  0  0  0  0  0  0  0
   47.8640   30.2900   48.3310 C   0  0  0  0  0  0  0  0  0  0  0  0
   48.6220   31.2860   49.1400 C   0  0  0  0  0  0  0  0  0  0  0  0
   46.7813   35.9394   42.1164 H   0  0  0  0  0  0  0  0  0  0  0  0
   46.9185   34.2333   41.4423 H   0  0  0  0  0  0  0  0  0  0  0  0
   44.7903   35.6994   41.0390 H   0  0  0  0  0  0  0  0  0  0  0  0
   44.7300   33.9002   41.3874 H   0  0  0  0  0  0  0  0  0  0  0  0
   43.3764   35.9993   42.7064 H   0  0  0  0  0  0  0  0  0  0  0  0
   43.4123   34.2231   43.0713 H   0  0  0  0  0  0  0  0  0  0  0  0
   45.3542   36.3234   44.1445 H   0  0  0  0  0  0  0  0  0  0  0  0
   44.0948   35.5440   45.0814 H   0  0  0  0  0  0  0  0  0  0  0  0
   45.2604   33.1475   44.1846 H   0  0  0  0  0  0  0  0  0  0  0  0
   48.7373   34.1433   43.0796 H   0  0  0  0  0  0  0  0  0  0  0  0
   48.1186   33.3336   44.5561 H   0  0  0  0  0  0  0  0  0  0  0  0
   47.5757   31.4803   43.4191 H   0  0  0  0  0  0  0  0  0  0  0  0
   46.7579   32.4218   42.1300 H   0  0  0  0  0  0  0  0  0  0  0  0
   52.2226   32.4405   41.8223 H   0  0  0  0  0  0  0  0  0  0  0  0
   50.2394   32.8069   43.3137 H   0  0  0  0  0  0  0  0  0  0  0  0
   49.6589   31.0404   38.7745 H   0  0  0  0  0  0  0  0  0  0  0  0
   45.0012   32.9566   48.5145 H   0  0  0  0  0  0  0  0  0  0  0  0
   46.2867   31.9957   48.7414 H   0  0  0  0  0  0  0  0  0  0  0  0
   47.3740   29.4422   48.8321 H   0  0  0  0  0  0  0  0  0  0  0  0
   48.1180   29.6484   47.4743 H   0  0  0  0  0  0  0  0  0  0  0  0
   49.5671   31.7029   48.7618 H   0  0  0  0  0  0  0  0  0  0  0  0
   49.0204   31.3272   50.1645 H   0  0  0  0  0  0  0  0  0  0  0  0
  1  7  1  0
  1  6  1  0
  2  1  1  0
  3  2  1  0
  3  4  1  0
  4  5  1  0
  5  6  1  0
  6 15  1  0
  8  7  1  0
  9 10  2  0
 11 10  1  0
 11  8  1  0
 12 11  2  0
 13 14  2  0
 13 12  1  0
 14  9  1  0
 15 17  1  0
 17 16  2  0
 17 19  1  0
 17 18  1  0
 19 20  1  0
 20 22  1  0
 21 20  1  0
 21 22  1  0
  2 23  1  0
  2 24  1  0
  3 25  1  0
  3 26  1  0
  4 27  1  0
  4 28  1  0
  5 29  1  0
  5 30  1  0
  6 31  1  1
  7 32  1  0
  7 33  1  0
  8 34  1  0
  8 35  1  0
  9 36  1  0
 10 37  1  0
 13 38  1  0
 18 39  1  0
 20 40  1  0
 21 41  1  0
 21 42  1  0
 22 43  1  0
 22 44  1  0
M  ISO  8  23  13  24  13  25  13  26  13  27  13  28  13  29  13  30  13
M  ISO  8  31  13  32   8  33   8  34   8  35   8  36  14  37  14  38  14
M  ISO  6  39   3  40  13  41  13  42  13  43  13  44  13
M  END
>  <minimizedAffinity>  (1) 
-4.68134737

>  <minimizedRMSD>  (1) 
2.42781472

$$$$
