
     RDKit          3D

 43 44  0  0  1  0  0  0  0  0999 V2000
   46.7890   34.4350   43.5260 N   0  0  0  0  0  0  0  0  0  0  0  0
   46.3190   35.5460   42.7800 C   0  0  0  0  0  0  0  0  0  0  0  0
   44.8240   35.7770   42.8190 C   0  0  0  0  0  0  0  0  0  0  0  0
   44.1780   35.3840   44.1150 C   0  0  0  0  0  0  0  0  0  0  0  0
   45.1900   34.9270   45.1400 C   0  0  0  0  0  0  0  0  0  0  0  0
   45.9500   33.7670   44.4020 C   0  0  2  0  0  0  0  0  0  0  0  0
   47.8460   33.7030   42.8910 C   0  0  0  0  0  0  0  0  0  0  0  0
   47.2660   32.7050   41.9620 C   0  0  0  0  0  0  0  0  0  0  0  0
   49.1220   32.0690   38.7630 C   0  0  0  0  0  0  0  0  0  0  0  0
   48.5910   31.9040   40.0560 C   0  0  0  0  0  0  0  0  0  0  0  0
   47.8160   32.8930   40.6000 C   0  0  0  0  0  0  0  0  0  0  0  0
   47.5970   33.9900   39.8600 N   0  0  0  0  0  0  0  0  0  0  0  0
   48.1100   34.1360   38.6250 C   0  0  0  0  0  0  0  0  0  0  0  0
   48.8700   33.1860   38.0680 N   0  0  0  0  0  0  0  0  0  0  0  0
   46.6540   33.1820   45.4460 O   0  0  0  0  0  0  0  0  0  0  0  0
   45.4920   31.0050   44.4900 O   0  0  0  0  0  0  0  0  0  0  0  0
   46.2650   31.5630   45.6740 P   0  0  2  0  0  0  0  0  0  0  0  0
   45.1830   31.5130   46.9970 O   0  0  0  0  0  0  0  0  0  0  0  0
   47.6080   30.6440   46.0630 O   0  0  0  0  0  0  0  0  0  0  0  0
   48.1900   30.0360   44.9590 C   0  0  0  0  0  0  0  0  0  0  0  0
   49.3400   29.1810   45.4500 C   0  0  0  0  0  0  0  0  0  0  0  0
   46.6106   35.3959   41.7300 H   0  0  0  0  0  0  0  0  0  0  0  0
   46.7719   36.4335   43.2460 H   0  0  0  0  0  0  0  0  0  0  0  0
   44.6351   36.8473   42.6492 H   0  0  0  0  0  0  0  0  0  0  0  0
   44.3836   35.1393   42.0383 H   0  0  0  0  0  0  0  0  0  0  0  0
   43.6332   36.2510   44.5168 H   0  0  0  0  0  0  0  0  0  0  0  0
   43.4979   34.5434   43.9128 H   0  0  0  0  0  0  0  0  0  0  0  0
   45.8782   35.7429   45.4058 H   0  0  0  0  0  0  0  0  0  0  0  0
   44.7306   34.6076   46.0870 H   0  0  0  0  0  0  0  0  0  0  0  0
   45.3613   33.0189   43.8508 H   0  0  0  0  0  0  0  0  0  0  0  0
   48.4873   34.3980   42.3290 H   0  0  0  0  0  0  0  0  0  0  0  0
   48.4460   33.1875   43.6554 H   0  0  0  0  0  0  0  0  0  0  0  0
   47.5116   31.6930   42.3164 H   0  0  0  0  0  0  0  0  0  0  0  0
   46.1745   32.8372   41.9294 H   0  0  0  0  0  0  0  0  0  0  0  0
   49.7461   31.2779   38.3217 H   0  0  0  0  0  0  0  0  0  0  0  0
   48.7974   30.9861   40.6260 H   0  0  0  0  0  0  0  0  0  0  0  0
   47.9001   35.0566   38.0607 H   0  0  0  0  0  0  0  0  0  0  0  0
   45.6956   31.5367   47.8436 H   0  0  0  0  0  0  0  0  0  0  0  0
   48.5642   30.8024   44.2643 H   0  0  0  0  0  0  0  0  0  0  0  0
   47.4513   29.4166   44.4291 H   0  0  0  0  0  0  0  0  0  0  0  0
   49.3486   29.1746   46.5499 H   0  0  0  0  0  0  0  0  0  0  0  0
   49.2174   28.1530   45.0783 H   0  0  0  0  0  0  0  0  0  0  0  0
   50.2891   29.5945   45.0783 H   0  0  0  0  0  0  0  0  0  0  0  0
  1  6  1  0
  2  3  1  0
  2  1  1  0
  3  4  1  0
  4  5  1  0
  6  5  1  0
  6 15  1  0
  7  1  1  0
  8  7  1  0
  9 10  2  0
 10 11  1  0
 11  8  1  0
 12 11  2  0
 13 12  1  0
 14 13  2  0
 14  9  1  0
 15 17  1  0
 17 16  2  0
 17 19  1  0
 17 18  1  0
 20 21  1  0
 20 19  1  0
  2 22  1  0
  2 23  1  0
  3 24  1  0
  3 25  1  0
  4 26  1  0
  4 27  1  0
  5 28  1  0
  5 29  1  0
  6 30  1  6
  7 31  1  0
  7 32  1  0
  8 33  1  0
  8 34  1  0
  9 35  1  0
 10 36  1  0
 13 37  1  0
 18 38  1  0
 20 39  1  0
 20 40  1  0
 21 41  1  0
 21 42  1  0
 21 43  1  0
M  ISO  8  22  13  23  13  24  13  25  13  26  13  27  13  28  13  29  13
M  ISO  8  30  13  31   8  32   8  33   8  34   8  35  14  36  14  37  14
M  ISO  6  38   3  39   8  40   8  41   8  42   8  43   8
M  END
>  <minimizedAffinity>  (1) 
-3.81900239

>  <minimizedRMSD>  (1) 
0.726582825

$$$$
