
     RDKit          3D

 40 41  0  0  1  0  0  0  0  0999 V2000
   47.1680   34.1640   43.0820 N   0  0  0  0  0  0  0  0  0  0  0  0
   46.6500   35.3520   42.5130 C   0  0  0  0  0  0  0  0  0  0  0  0
   45.1710   35.5760   42.7230 C   0  0  0  0  0  0  0  0  0  0  0  0
   44.6430   35.0450   44.0320 C   0  0  0  0  0  0  0  0  0  0  0  0
   45.7480   34.4800   44.8920 C   0  0  0  0  0  0  0  0  0  0  0  0
   46.4180   33.4020   43.9620 C   0  0  2  0  0  0  0  0  0  0  0  0
   48.1540   33.5060   42.2670 C   0  0  0  0  0  0  0  0  0  0  0  0
   47.4610   32.6530   41.2620 C   0  0  0  0  0  0  0  0  0  0  0  0
   49.3370   32.2730   38.0290 C   0  0  0  0  0  0  0  0  0  0  0  0
   48.8160   32.0190   39.3110 C   0  0  0  0  0  0  0  0  0  0  0  0
   48.0000   32.9420   39.9090 C   0  0  0  0  0  0  0  0  0  0  0  0
   47.7350   34.0660   39.2320 N   0  0  0  0  0  0  0  0  0  0  0  0
   48.2300   34.3140   38.0090 C   0  0  0  0  0  0  0  0  0  0  0  0
   49.0330   33.4290   37.3930 N   0  0  0  0  0  0  0  0  0  0  0  0
   47.2160   32.7140   44.8620 O   0  0  0  0  0  0  0  0  0  0  0  0
   46.0400   30.5400   43.8790 O   0  0  0  0  0  0  0  0  0  0  0  0
   46.6830   31.1440   45.1360 P   0  0  2  0  0  0  0  0  0  0  0  0
   45.4010   31.2630   46.2640 O   0  0  0  0  0  0  0  0  0  0  0  0
   47.8540   30.1550   45.7850 O   0  0  0  0  0  0  0  0  0  0  0  0
   47.7440   28.8900   45.2140 C   0  0  0  0  0  0  0  0  0  0  0  0
   46.8386   35.3205   41.4298 H   0  0  0  0  0  0  0  0  0  0  0  0
   47.1593   36.1819   43.0247 H   0  0  0  0  0  0  0  0  0  0  0  0
   44.9779   36.6583   42.6872 H   0  0  0  0  0  0  0  0  0  0  0  0
   44.6522   35.0228   41.9262 H   0  0  0  0  0  0  0  0  0  0  0  0
   44.1510   35.8644   44.5766 H   0  0  0  0  0  0  0  0  0  0  0  0
   43.9319   34.2352   43.8117 H   0  0  0  0  0  0  0  0  0  0  0  0
   46.4692   35.2625   45.1707 H   0  0  0  0  0  0  0  0  0  0  0  0
   45.3823   34.0611   45.8411 H   0  0  0  0  0  0  0  0  0  0  0  0
   45.7728   32.7127   43.3976 H   0  0  0  0  0  0  0  0  0  0  0  0
   48.7681   34.2588   41.7511 H   0  0  0  0  0  0  0  0  0  0  0  0
   48.8031   32.8826   42.8994 H   0  0  0  0  0  0  0  0  0  0  0  0
   47.6276   31.5930   41.5040 H   0  0  0  0  0  0  0  0  0  0  0  0
   46.3826   32.8690   41.2801 H   0  0  0  0  0  0  0  0  0  0  0  0
   49.9907   31.5332   37.5439 H   0  0  0  0  0  0  0  0  0  0  0  0
   49.0633   31.0820   39.8313 H   0  0  0  0  0  0  0  0  0  0  0  0
   47.9745   35.2565   37.5027 H   0  0  0  0  0  0  0  0  0  0  0  0
   45.7663   31.2291   47.1835 H   0  0  0  0  0  0  0  0  0  0  0  0
   47.6782   28.1331   46.0095 H   0  0  0  0  0  0  0  0  0  0  0  0
   46.8387   28.8465   44.5907 H   0  0  0  0  0  0  0  0  0  0  0  0
   48.6282   28.6909   44.5907 H   0  0  0  0  0  0  0  0  0  0  0  0
  1  6  1  0
  2  3  1  0
  2  1  1  0
  3  4  1  0
  4  5  1  0
  6 15  1  0
  6  5  1  0
  7  1  1  0
  8  7  1  0
  9 10  2  0
 10 11  1  0
 11  8  1  0
 12 11  2  0
 13 12  1  0
 14 13  2  0
 14  9  1  0
 15 17  1  0
 17 16  2  0
 17 19  1  0
 17 18  1  0
 20 19  1  0
  2 21  1  0
  2 22  1  0
  3 23  1  0
  3 24  1  0
  4 25  1  0
  4 26  1  0
  5 27  1  0
  5 28  1  0
  6 29  1  6
  7 30  1  0
  7 31  1  0
  8 32  1  0
  8 33  1  0
  9 34  1  0
 10 35  1  0
 13 36  1  0
 18 37  1  0
 20 38  1  0
 20 39  1  0
 20 40  1  0
M  ISO  8  21  13  22  13  23  13  24  13  25  13  26  13  27  13  28  13
M  ISO  8  29  13  30   8  31   8  32   8  33   8  34  14  35  14  36  14
M  ISO  4  37   3  38   8  39   8  40   8
M  END
>  <minimizedAffinity>  (1) 
-3.6773982

>  <minimizedRMSD>  (1) 
0.0388173461

$$$$
