
     RDKit          3D

 40 43  0  0  0  0  0  0  0  0999 V2000
   46.8470   31.6000   39.4460 C   0  0  0  0  0  0  0  0  0  0  0  0
   46.6660   32.9460   39.3450 C   0  0  0  0  0  0  0  0  0  0  0  0
   47.4720   33.6920   38.5020 C   0  0  0  0  0  0  0  0  0  0  0  0
   48.4550   33.0770   37.7640 C   0  0  0  0  0  0  0  0  0  0  0  0
   48.6720   31.7010   37.8370 C   0  0  0  0  0  0  0  0  0  0  0  0
   47.8440   30.9700   38.6970 C   0  0  0  0  0  0  0  0  0  0  0  0
   45.3880   35.9880   43.3180 Cl  0  0  0  0  0  0  0  0  0  0  0  0
   45.0430   35.0770   41.8660 C   0  0  0  0  0  0  0  0  0  0  0  0
   46.0240   34.4050   41.2120 C   0  0  0  0  0  0  0  0  0  0  0  0
   45.6470   33.6970   40.0810 C   0  0  0  0  0  0  0  0  0  0  0  0
   44.3480   33.6750   39.6370 C   0  0  0  0  0  0  0  0  0  0  0  0
   43.3830   34.3530   40.3050 C   0  0  0  0  0  0  0  0  0  0  0  0
   43.7410   35.0610   41.4340 C   0  0  0  0  0  0  0  0  0  0  0  0
   49.5340   35.5340   42.0040 C   0  0  0  0  0  0  0  0  0  0  0  0
   48.2290   35.5030   41.5010 C   0  0  0  0  0  0  0  0  0  0  0  0
   47.3740   34.4470   41.7260 C   0  0  0  0  0  0  0  0  0  0  0  0
   47.9040   33.4450   42.4770 N   0  0  0  0  0  0  0  0  0  0  0  0
   49.1480   33.4650   42.9620 C   0  0  0  0  0  0  0  0  0  0  0  0
   49.9550   34.5050   42.7250 N   0  0  0  0  0  0  0  0  0  0  0  0
   45.8560   30.6550   40.4270 S   0  0  0  0  0  0  0  0  0  0  0  0
   44.5270   30.3450   39.7740 O   0  0  0  0  0  0  0  0  0  0  0  0
   46.5710   29.2530   40.4320 O   0  0  0  0  0  0  0  0  0  0  0  0
   45.5310   30.9710   42.0850 C   0  0  0  0  0  0  0  0  0  0  0  0
   46.3460   30.3850   43.0880 C   0  0  0  0  0  0  0  0  0  0  0  0
   45.9780   30.6930   44.3750 C   0  0  0  0  0  0  0  0  0  0  0  0
   44.9240   31.4780   44.1650 N   0  0  0  0  0  0  0  0  0  0  0  0
   44.6960   31.6190   42.9160 N   0  0  0  0  0  0  0  0  0  0  0  0
   47.3254   34.7793   38.4227 H   0  0  0  0  0  0  0  0  0  0  0  0
   49.0863   33.6850   37.0993 H   0  0  0  0  0  0  0  0  0  0  0  0
   49.4593   31.2118   37.2447 H   0  0  0  0  0  0  0  0  0  0  0  0
   47.9805   29.8820   38.7845 H   0  0  0  0  0  0  0  0  0  0  0  0
   44.0888   33.1036   38.7335 H   0  0  0  0  0  0  0  0  0  0  0  0
   42.3400   34.3392   39.9557 H   0  0  0  0  0  0  0  0  0  0  0  0
   42.9748   35.6181   41.9932 H   0  0  0  0  0  0  0  0  0  0  0  0
   50.1942   36.3912   41.8059 H   0  0  0  0  0  0  0  0  0  0  0  0
   47.8721   36.3545   40.9030 H   0  0  0  0  0  0  0  0  0  0  0  0
   49.5125   32.6182   43.5621 H   0  0  0  0  0  0  0  0  0  0  0  0
   47.2031   29.7366   42.8538 H   0  0  0  0  0  0  0  0  0  0  0  0
   46.4328   30.3757   45.3250 H   0  0  0  0  0  0  0  0  0  0  0  0
   44.3652   31.9147   44.9119 H   0  0  0  0  0  0  0  0  0  0  0  0
  1 20  1  0
  2  1  1  0
  2 10  1  0
  3  2  2  0
  4  5  2  0
  4  3  1  0
  5  6  1  0
  6  1  2  0
  8  7  1  0
  9 16  1  0
  9  8  2  0
 10  9  1  0
 11 10  2  0
 11 12  1  0
 12 13  2  0
 13  8  1  0
 14 19  2  0
 15 16  2  0
 15 14  1  0
 16 17  1  0
 17 18  2  0
 19 18  1  0
 20 22  2  0
 20 23  1  0
 21 20  2  0
 23 27  2  0
 23 24  1  0
 24 25  2  0
 26 25  1  0
 27 26  1  0
  3 28  1  0
  4 29  1  0
  5 30  1  0
  6 31  1  0
 11 32  1  0
 12 33  1  0
 13 34  1  0
 14 35  1  0
 15 36  1  0
 18 37  1  0
 24 38  1  0
 25 39  1  0
 26 40  1  0
M  ISO  8  28  14  29  14  30  14  31  14  32  14  33  14  34  14  35  14
M  ISO  5  36  14  37  14  38  14  39  14  40   9
M  END
>  <minimizedAffinity>  (1) 
-4.95917892

>  <minimizedRMSD>  (1) 
1.08946598

$$$$
