
     RDKit          3D

 48 51  0  0  0  0  0  0  0  0999 V2000
   47.9980   33.5440   42.4770 C   0  0  0  0  0  0  0  0  0  0  0  0
   47.4240   34.3910   41.5760 C   0  0  0  0  0  0  0  0  0  0  0  0
   48.1280   35.5040   41.1600 C   0  0  0  0  0  0  0  0  0  0  0  0
   49.3880   35.7520   41.6470 C   0  0  0  0  0  0  0  0  0  0  0  0
   49.9970   34.9020   42.5660 C   0  0  0  0  0  0  0  0  0  0  0  0
   49.2790   33.7920   42.9740 C   0  0  0  0  0  0  0  0  0  0  0  0
   44.4520   32.7510   37.7090 Cl  0  0  0  0  0  0  0  0  0  0  0  0
   44.7370   33.4770   39.2620 C   0  0  0  0  0  0  0  0  0  0  0  0
   45.9840   33.6120   39.7550 C   0  0  0  0  0  0  0  0  0  0  0  0
   46.1020   34.2100   41.0040 C   0  0  0  0  0  0  0  0  0  0  0  0
   45.0140   34.6450   41.7130 C   0  0  0  0  0  0  0  0  0  0  0  0
   43.7660   34.5020   41.1980 C   0  0  0  0  0  0  0  0  0  0  0  0
   43.6350   33.9120   39.9620 C   0  0  0  0  0  0  0  0  0  0  0  0
   48.7590   31.4620   38.3650 C   0  0  0  0  0  0  0  0  0  0  0  0
   47.6730   31.8990   39.1290 C   0  0  0  0  0  0  0  0  0  0  0  0
   47.1070   33.1490   38.9750 C   0  0  0  0  0  0  0  0  0  0  0  0
   47.6860   33.9240   38.0200 N   0  0  0  0  0  0  0  0  0  0  0  0
   48.7280   33.5090   37.2840 C   0  0  0  0  0  0  0  0  0  0  0  0
   49.2570   32.2920   37.4560 N   0  0  0  0  0  0  0  0  0  0  0  0
   47.2130   32.1570   43.0250 S   0  0  0  0  0  0  0  0  0  0  0  0
   48.1850   31.1300   43.5770 O   0  0  0  0  0  0  0  0  0  0  0  0
   46.4440   32.6520   44.2810 O   0  0  0  0  0  0  0  0  0  0  0  0
   43.8930   29.2100   42.6460 N   0  0  0  0  0  0  0  0  0  0  0  0
   43.6550   30.6200   42.4900 C   0  0  0  0  0  0  0  0  0  0  0  0
   44.7640   31.3710   43.1140 C   0  0  0  0  0  0  0  0  0  0  0  0
   46.0740   31.1890   42.2530 C   0  0  0  0  0  0  0  0  0  0  0  0
   46.2190   29.6770   42.3940 C   0  0  0  0  0  0  0  0  0  0  0  0
   45.1940   29.0130   43.2460 C   0  0  0  0  0  0  0  0  0  0  0  0
   47.6767   36.1963   40.4340 H   0  0  0  0  0  0  0  0  0  0  0  0
   49.9298   36.6450   41.3021 H   0  0  0  0  0  0  0  0  0  0  0  0
   51.0071   35.1045   42.9517 H   0  0  0  0  0  0  0  0  0  0  0  0
   49.7235   33.0952   43.6999 H   0  0  0  0  0  0  0  0  0  0  0  0
   45.1514   35.1105   42.7002 H   0  0  0  0  0  0  0  0  0  0  0  0
   42.8827   34.8488   41.7544 H   0  0  0  0  0  0  0  0  0  0  0  0
   42.6329   33.7859   39.5262 H   0  0  0  0  0  0  0  0  0  0  0  0
   49.1884   30.4601   38.5125 H   0  0  0  0  0  0  0  0  0  0  0  0
   47.2519   31.2189   39.8841 H   0  0  0  0  0  0  0  0  0  0  0  0
   49.1552   34.1813   36.5254 H   0  0  0  0  0  0  0  0  0  0  0  0
   43.8654   28.7515   41.7241 H   0  0  0  0  0  0  0  0  0  0  0  0
   43.5991   30.8676   41.4197 H   0  0  0  0  0  0  0  0  0  0  0  0
   42.7057   30.8908   42.9752 H   0  0  0  0  0  0  0  0  0  0  0  0
   44.5024   32.4384   43.1621 H   0  0  0  0  0  0  0  0  0  0  0  0
   44.9382   30.9895   44.1309 H   0  0  0  0  0  0  0  0  0  0  0  0
   46.1300   31.4792   41.1935 H   0  0  0  0  0  0  0  0  0  0  0  0
   46.1617   29.2355   41.3881 H   0  0  0  0  0  0  0  0  0  0  0  0
   47.1836   29.5109   42.8959 H   0  0  0  0  0  0  0  0  0  0  0  0
   45.2076   29.4547   44.2533 H   0  0  0  0  0  0  0  0  0  0  0  0
   45.4115   27.9375   43.3239 H   0  0  0  0  0  0  0  0  0  0  0  0
  1  6  2  0
  1 20  1  0
  2  1  1  0
  3  2  2  0
  3  4  1  0
  4  5  2  0
  5  6  1  0
  7  8  1  0
  8  9  2  0
  8 13  1  0
  9 10  1  0
 10  2  1  0
 10 11  2  0
 12 11  1  0
 13 12  2  0
 14 15  2  0
 16 15  1  0
 16  9  1  0
 17 16  2  0
 18 19  2  0
 18 17  1  0
 19 14  1  0
 20 21  2  0
 20 22  2  0
 23 28  1  0
 24 23  1  0
 24 25  1  0
 26 27  1  0
 26 20  1  0
 26 25  1  0
 27 28  1  0
  3 29  1  0
  4 30  1  0
  5 31  1  0
  6 32  1  0
 11 33  1  0
 12 34  1  0
 13 35  1  0
 14 36  1  0
 15 37  1  0
 18 38  1  0
 23 39  1  0
 24 40  1  0
 24 41  1  0
 25 42  1  0
 25 43  1  0
 26 44  1  0
 27 45  1  0
 27 46  1  0
 28 47  1  0
 28 48  1  0
M  ISO  8  29  14  30  14  31  14  32  14  33  14  34  14  35  14  36  14
M  ISO  8  37  14  38  14  39   5  40  13  41  13  42  13  43  13  44  13
M  ISO  4  45  13  46  13  47  13  48  13
M  END
>  <minimizedAffinity>  (1) 
-5.06260014

>  <minimizedRMSD>  (1) 
3.81233788

$$$$
