
     RDKit          3D

 45 48  0  0  1  0  0  0  0  0999 V2000
   44.9230   35.2730   42.9140 Cl  0  0  0  0  0  0  0  0  0  0  0  0
   44.9750   33.7590   42.0540 C   0  0  0  0  0  0  0  0  0  0  0  0
   46.1340   33.2810   41.5510 C   0  0  0  0  0  0  0  0  0  0  0  0
   46.0660   32.0640   40.8820 C   0  0  0  0  0  0  0  0  0  0  0  0
   44.8900   31.3710   40.7310 C   0  0  0  0  0  0  0  0  0  0  0  0
   43.7380   31.8720   41.2480 C   0  0  0  0  0  0  0  0  0  0  0  0
   43.7890   33.0760   41.9130 C   0  0  0  0  0  0  0  0  0  0  0  0
   47.6920   31.6320   39.0380 C   0  0  0  0  0  0  0  0  0  0  0  0
   47.2860   31.4960   40.3320 C   0  0  0  0  0  0  0  0  0  0  0  0
   48.0780   30.7710   41.2020 C   0  0  0  0  0  0  0  0  0  0  0  0
   49.2500   30.1990   40.7710 C   0  0  0  0  0  0  0  0  0  0  0  0
   49.6820   30.3280   39.4560 C   0  0  0  0  0  0  0  0  0  0  0  0
   48.8810   31.0580   38.5860 C   0  0  0  0  0  0  0  0  0  0  0  0
   46.7970   32.5260   37.9230 S   0  0  0  0  0  0  0  0  0  0  0  0
   45.6920   33.3330   38.5610 O   0  0  0  0  0  0  0  0  0  0  0  0
   47.7990   33.6130   37.4270 O   0  0  0  0  0  0  0  0  0  0  0  0
   45.3970   33.0160   35.6660 N   0  0  0  0  0  0  0  0  0  0  0  0
   45.2500   32.2690   34.4320 C   0  0  0  0  0  0  0  0  0  0  0  0
   46.6910   31.9740   34.1340 C   0  0  0  0  0  0  0  0  0  0  0  0
   47.3580   32.0640   35.4640 C   0  0  0  0  0  0  0  0  0  0  0  0
   46.1440   32.0180   36.4610 C   0  0  1  0  0  0  0  0  0  0  0  0
   48.9840   35.6940   41.0110 C   0  0  0  0  0  0  0  0  0  0  0  0
   47.8030   34.9680   40.8160 C   0  0  0  0  0  0  0  0  0  0  0  0
   47.3500   34.0340   41.7330 C   0  0  0  0  0  0  0  0  0  0  0  0
   48.1370   33.8750   42.8290 N   0  0  0  0  0  0  0  0  0  0  0  0
   49.2690   34.5720   43.0150 C   0  0  0  0  0  0  0  0  0  0  0  0
   49.6850   35.4690   42.1150 N   0  0  0  0  0  0  0  0  0  0  0  0
   44.8809   30.4119   40.1924 H   0  0  0  0  0  0  0  0  0  0  0  0
   42.7878   31.3288   41.1379 H   0  0  0  0  0  0  0  0  0  0  0  0
   42.8670   33.4989   42.3385 H   0  0  0  0  0  0  0  0  0  0  0  0
   47.7667   30.6508   42.2502 H   0  0  0  0  0  0  0  0  0  0  0  0
   49.8612   29.6253   41.4832 H   0  0  0  0  0  0  0  0  0  0  0  0
   50.6226   29.8695   39.1168 H   0  0  0  0  0  0  0  0  0  0  0  0
   49.1855   31.1839   37.5365 H   0  0  0  0  0  0  0  0  0  0  0  0
   44.4860   33.2425   36.0900 H   0  0  0  0  0  0  0  0  0  0  0  0
   44.6665   31.3482   34.5791 H   0  0  0  0  0  0  0  0  0  0  0  0
   44.7096   32.7965   33.6322 H   0  0  0  0  0  0  0  0  0  0  0  0
   46.8040   30.9666   33.7069 H   0  0  0  0  0  0  0  0  0  0  0  0
   47.1218   32.6664   33.3957 H   0  0  0  0  0  0  0  0  0  0  0  0
   48.0370   31.2139   35.6259 H   0  0  0  0  0  0  0  0  0  0  0  0
   47.9846   32.9608   35.5791 H   0  0  0  0  0  0  0  0  0  0  0  0
   45.5616   31.1241   36.7290 H   0  0  0  0  0  0  0  0  0  0  0  0
   49.3221   36.4317   40.2684 H   0  0  0  0  0  0  0  0  0  0  0  0
   47.2148   35.1453   39.9035 H   0  0  0  0  0  0  0  0  0  0  0  0
   49.8649   34.4022   43.9239 H   0  0  0  0  0  0  0  0  0  0  0  0
  2  1  1  0
  3 24  1  0
  3  2  2  0
  4  3  1  0
  5  4  2  0
  5  6  1  0
  6  7  2  0
  7  2  1  0
  8  9  1  0
  9  4  1  0
  9 10  2  0
 11 10  1  0
 12 11  2  0
 13  8  2  0
 13 12  1  0
 14 15  2  0
 14  8  1  0
 16 14  2  0
 17 21  1  0
 18 17  1  0
 19 18  1  0
 19 20  1  0
 20 21  1  0
 21 14  1  0
 22 27  2  0
 23 22  1  0
 23 24  2  0
 24 25  1  0
 25 26  2  0
 27 26  1  0
  5 28  1  0
  6 29  1  0
  7 30  1  0
 10 31  1  0
 11 32  1  0
 12 33  1  0
 13 34  1  0
 17 35  1  0
 18 36  1  0
 18 37  1  0
 19 38  1  0
 19 39  1  0
 20 40  1  0
 20 41  1  0
 21 42  1  1
 22 43  1  0
 23 44  1  0
 26 45  1  0
M  ISO  8  28  14  29  14  30  14  31  14  32  14  33  14  34  14  35   5
M  ISO  8  36  13  37  13  38  13  39  13  40  13  41  13  42  13  43  14
M  ISO  2  44  14  45  14
M  END
>  <minimizedAffinity>  (1) 
-4.7365675

>  <minimizedRMSD>  (1) 
3.72661924

$$$$
