
     RDKit          3D

 39 42  0  0  0  0  0  0  0  0999 V2000
   47.5870   31.7910   38.9460 C   0  0  0  0  0  0  0  0  0  0  0  0
   47.1590   33.0850   38.9590 C   0  0  0  0  0  0  0  0  0  0  0  0
   47.8080   34.0320   38.1850 C   0  0  0  0  0  0  0  0  0  0  0  0
   48.8780   33.6830   37.4020 C   0  0  0  0  0  0  0  0  0  0  0  0
   49.3480   32.3740   37.3580 C   0  0  0  0  0  0  0  0  0  0  0  0
   48.6800   31.4300   38.1480 C   0  0  0  0  0  0  0  0  0  0  0  0
   45.3860   35.4230   43.2110 Cl  0  0  0  0  0  0  0  0  0  0  0  0
   45.2020   34.6380   41.6660 C   0  0  0  0  0  0  0  0  0  0  0  0
   46.2790   34.2080   40.9580 C   0  0  0  0  0  0  0  0  0  0  0  0
   46.0280   33.5750   39.7500 C   0  0  0  0  0  0  0  0  0  0  0  0
   44.7510   33.3890   39.2850 C   0  0  0  0  0  0  0  0  0  0  0  0
   43.6840   33.8230   40.0010 C   0  0  0  0  0  0  0  0  0  0  0  0
   43.9210   34.4500   41.1990 C   0  0  0  0  0  0  0  0  0  0  0  0
   49.5750   35.7870   41.8950 C   0  0  0  0  0  0  0  0  0  0  0  0
   48.2950   35.5980   41.3640 C   0  0  0  0  0  0  0  0  0  0  0  0
   47.6060   34.4120   41.5060 C   0  0  0  0  0  0  0  0  0  0  0  0
   48.2700   33.4470   42.2020 N   0  0  0  0  0  0  0  0  0  0  0  0
   49.4890   33.6210   42.7120 C   0  0  0  0  0  0  0  0  0  0  0  0
   50.1340   34.7790   42.5590 N   0  0  0  0  0  0  0  0  0  0  0  0
   46.7820   30.6110   39.8430 S   0  0  0  0  0  0  0  0  0  0  0  0
   45.5530   30.0980   39.1220 O   0  0  0  0  0  0  0  0  0  0  0  0
   47.7610   29.3720   39.7380 O   0  0  0  0  0  0  0  0  0  0  0  0
   46.4790   30.7120   41.5370 C   0  0  0  0  0  0  0  0  0  0  0  0
   47.7220   30.0380   42.2970 C   0  0  0  0  0  0  0  0  0  0  0  0
   47.3230   30.1730   44.0510 S   0  0  0  0  0  0  0  0  0  0  0  0
   45.6900   31.0370   43.6500 C   0  0  0  0  0  0  0  0  0  0  0  0
   45.6850   31.0850   42.5100 N   0  0  0  0  0  0  0  0  0  0  0  0
   47.4613   35.0759   38.1984 H   0  0  0  0  0  0  0  0  0  0  0  0
   49.3755   34.4542   36.7956 H   0  0  0  0  0  0  0  0  0  0  0  0
   50.2065   32.0930   36.7303 H   0  0  0  0  0  0  0  0  0  0  0  0
   49.0206   30.3841   38.1416 H   0  0  0  0  0  0  0  0  0  0  0  0
   44.5907   32.8827   38.3217 H   0  0  0  0  0  0  0  0  0  0  0  0
   42.6580   33.6768   39.6323 H   0  0  0  0  0  0  0  0  0  0  0  0
   43.0707   34.8091   41.7973 H   0  0  0  0  0  0  0  0  0  0  0  0
   50.1047   36.7426   41.7671 H   0  0  0  0  0  0  0  0  0  0  0  0
   47.8213   36.4244   40.8138 H   0  0  0  0  0  0  0  0  0  0  0  0
   49.9689   32.8004   43.2655 H   0  0  0  0  0  0  0  0  0  0  0  0
   48.6207   29.5914   41.8466 H   0  0  0  0  0  0  0  0  0  0  0  0
   44.9258   31.4060   44.3498 H   0  0  0  0  0  0  0  0  0  0  0  0
  1  2  1  0
  1 20  1  0
  2 10  1  0
  3  2  2  0
  4  3  1  0
  5  4  2  0
  5  6  1  0
  6  1  2  0
  8  7  1  0
  9 16  1  0
  9  8  2  0
 10  9  1  0
 11 10  2  0
 11 12  1  0
 12 13  2  0
 13  8  1  0
 14 19  2  0
 15 16  2  0
 15 14  1  0
 16 17  1  0
 17 18  2  0
 19 18  1  0
 20 23  1  0
 21 20  2  0
 22 20  2  0
 23 24  2  0
 23 27  1  0
 24 25  1  0
 26 25  1  0
 27 26  2  0
  3 28  1  0
  4 29  1  0
  5 30  1  0
  6 31  1  0
 11 32  1  0
 12 33  1  0
 13 34  1  0
 14 35  1  0
 15 36  1  0
 18 37  1  0
 24 38  1  0
 26 39  1  0
M  ISO  8  28  14  29  14  30  14  31  14  32  14  33  14  34  14  35  14
M  ISO  4  36  14  37  14  38  14  39  14
M  END
>  <minimizedAffinity>  (1) 
-4.68738461

>  <minimizedRMSD>  (1) 
1.0910573

$$$$
