
     RDKit          3D

 24 26  0  0  0  0  0  0  0  0999 V2000
   47.3200   31.4880   45.1230 C   0  0  0  0  0  0  0  0  0  0  0  0
   46.7760   32.7610   45.0690 C   0  0  0  0  0  0  0  0  0  0  0  0
   46.0560   33.3050   46.1100 C   0  0  0  0  0  0  0  0  0  0  0  0
   45.8500   32.5710   47.2800 C   0  0  0  0  0  0  0  0  0  0  0  0
   45.2120   32.7810   48.4690 N   0  0  0  0  0  0  0  0  0  0  0  0
   45.3610   31.6630   49.2340 C   0  0  0  0  0  0  0  0  0  0  0  0
   46.0850   30.7910   48.5050 N   0  0  0  0  0  0  0  0  0  0  0  0
   46.4050   31.3020   47.3080 C   0  0  0  0  0  0  0  0  0  0  0  0
   47.1270   30.7310   46.2860 C   0  0  0  0  0  0  0  0  0  0  0  0
   46.0690   34.8960   42.1620 C   0  0  0  0  0  0  0  0  0  0  0  0
   47.3570   35.0540   41.6010 C   0  0  0  0  0  0  0  0  0  0  0  0
   48.4650   34.4230   42.2250 C   0  0  0  0  0  0  0  0  0  0  0  0
   48.1850   33.7010   43.3420 N   0  0  0  0  0  0  0  0  0  0  0  0
   46.9670   33.5550   43.8700 C   0  0  0  0  0  0  0  0  0  0  0  0
   45.9080   34.1530   43.2810 N   0  0  0  0  0  0  0  0  0  0  0  0
   45.5110   34.5780   46.0600 O   0  0  0  0  0  0  0  0  0  0  0  0
   47.8893   31.0817   44.2739 H   0  0  0  0  0  0  0  0  0  0  0  0
   44.7060   33.6360   48.7405 H   0  0  0  0  0  0  0  0  0  0  0  0
   44.9671   31.5035   50.2486 H   0  0  0  0  0  0  0  0  0  0  0  0
   47.5386   29.7151   46.3786 H   0  0  0  0  0  0  0  0  0  0  0  0
   45.1994   35.3763   41.6896 H   0  0  0  0  0  0  0  0  0  0  0  0
   47.4988   35.6581   40.6927 H   0  0  0  0  0  0  0  0  0  0  0  0
   49.4873   34.5128   41.8289 H   0  0  0  0  0  0  0  0  0  0  0  0
   45.0005   34.9286   46.8324 H   0  0  0  0  0  0  0  0  0  0  0  0
  1  9  2  0
  2  1  1  0
  2  3  2  0
  3  4  1  0
  4  8  2  0
  4  5  1  0
  5  6  1  0
  7  6  2  0
  8  7  1  0
  9  8  1  0
 10 15  2  0
 11 10  1  0
 11 12  2  0
 12 13  1  0
 13 14  2  0
 14  2  1  0
 15 14  1  0
 16  3  1  0
  1 17  1  0
  5 18  1  0
  6 19  1  0
  9 20  1  0
 10 21  1  0
 11 22  1  0
 12 23  1  0
 16 24  1  0
M  ISO  8  17  14  18   9  19  14  20  14  21  14  22  14  23  14  24   3
M  END
>  <minimizedAffinity>  (1) 
-5.16947126

>  <minimizedRMSD>  (1) 
0.313463777

$$$$
