
     RDKit          3D

 25 27  0  0  0  0  0  0  0  0999 V2000
   47.3980   31.5280   45.1240 C   0  0  0  0  0  0  0  0  0  0  0  0
   46.7790   32.7630   45.0170 C   0  0  0  0  0  0  0  0  0  0  0  0
   46.0390   33.2990   46.0500 C   0  0  0  0  0  0  0  0  0  0  0  0
   45.8810   32.6180   47.2500 C   0  0  0  0  0  0  0  0  0  0  0  0
   45.2510   32.8320   48.4300 N   0  0  0  0  0  0  0  0  0  0  0  0
   45.4760   31.7570   49.2380 C   0  0  0  0  0  0  0  0  0  0  0  0
   46.2490   30.8890   48.5410 N   0  0  0  0  0  0  0  0  0  0  0  0
   46.5080   31.3970   47.3210 C   0  0  0  0  0  0  0  0  0  0  0  0
   47.2610   30.8140   46.3190 C   0  0  0  0  0  0  0  0  0  0  0  0
   45.9200   34.5940   41.9520 C   0  0  0  0  0  0  0  0  0  0  0  0
   47.1910   34.9550   41.4600 C   0  0  0  0  0  0  0  0  0  0  0  0
   48.3380   34.5660   42.1880 C   0  0  0  0  0  0  0  0  0  0  0  0
   48.1250   33.8540   43.3350 N   0  0  0  0  0  0  0  0  0  0  0  0
   46.9100   33.5250   43.7810 C   0  0  0  0  0  0  0  0  0  0  0  0
   45.8220   33.8920   43.0950 N   0  0  0  0  0  0  0  0  0  0  0  0
   45.4030   34.5680   45.9420 N   0  0  0  0  0  0  0  0  0  0  0  0
   47.9839   31.1183   44.2881 H   0  0  0  0  0  0  0  0  0  0  0  0
   44.6966   33.6648   48.6750 H   0  0  0  0  0  0  0  0  0  0  0  0
   45.1007   31.6200   50.2629 H   0  0  0  0  0  0  0  0  0  0  0  0
   47.7327   29.8297   46.4557 H   0  0  0  0  0  0  0  0  0  0  0  0
   45.0122   34.8853   41.4033 H   0  0  0  0  0  0  0  0  0  0  0  0
   47.2880   35.5289   40.5266 H   0  0  0  0  0  0  0  0  0  0  0  0
   49.3521   34.8235   41.8483 H   0  0  0  0  0  0  0  0  0  0  0  0
   44.8574   34.9396   46.7327 H   0  0  0  0  0  0  0  0  0  0  0  0
   45.4884   35.1146   45.0732 H   0  0  0  0  0  0  0  0  0  0  0  0
  1  9  2  0
  2  1  1  0
  2  3  2  0
  3  4  1  0
  4  8  2  0
  4  5  1  0
  5  6  1  0
  7  6  2  0
  8  7  1  0
  9  8  1  0
 10 15  2  0
 11 10  1  0
 11 12  2  0
 12 13  1  0
 13 14  2  0
 14  2  1  0
 15 14  1  0
 16  3  1  0
  1 17  1  0
  5 18  1  0
  6 19  1  0
  9 20  1  0
 10 21  1  0
 11 22  1  0
 12 23  1  0
 16 24  1  0
 16 25  1  0
M  ISO  7  17  14  18   9  19  14  20  14  21  14  22  14  23  14
M  END
>  <minimizedAffinity>  (1) 
-5.14198923

>  <minimizedRMSD>  (1) 
0.471062481

$$$$
