
     RDKit          3D

 25 27  0  0  0  0  0  0  0  0999 V2000
   47.4870   31.6570   44.7810 C   0  0  0  0  0  0  0  0  0  0  0  0
   46.8590   32.8660   44.5010 C   0  0  0  0  0  0  0  0  0  0  0  0
   45.9740   33.4900   45.3800 C   0  0  0  0  0  0  0  0  0  0  0  0
   45.6920   32.8820   46.6080 C   0  0  0  0  0  0  0  0  0  0  0  0
   44.9260   33.1620   47.6800 N   0  0  0  0  0  0  0  0  0  0  0  0
   45.0590   32.1760   48.6000 C   0  0  0  0  0  0  0  0  0  0  0  0
   45.9210   31.2820   48.0770 N   0  0  0  0  0  0  0  0  0  0  0  0
   46.3230   31.6900   46.8610 C   0  0  0  0  0  0  0  0  0  0  0  0
   47.2070   31.0490   46.0060 C   0  0  0  0  0  0  0  0  0  0  0  0
   46.5530   33.9330   40.9930 C   0  0  0  0  0  0  0  0  0  0  0  0
   47.6520   34.7920   40.8440 C   0  0  0  0  0  0  0  0  0  0  0  0
   48.5000   35.0010   41.9620 C   0  0  0  0  0  0  0  0  0  0  0  0
   48.1740   34.3390   43.1130 N   0  0  0  0  0  0  0  0  0  0  0  0
   47.1240   33.5260   43.2370 C   0  0  0  0  0  0  0  0  0  0  0  0
   46.3330   33.3370   42.1780 N   0  0  0  0  0  0  0  0  0  0  0  0
   45.3190   34.7420   45.0990 C   0  0  0  0  0  0  0  0  0  0  0  0
   44.5370   35.1660   45.9970 O   0  0  0  0  0  0  0  0  0  0  0  0
   48.1803   31.1959   44.0621 H   0  0  0  0  0  0  0  0  0  0  0  0
   44.3312   33.9964   47.7843 H   0  0  0  0  0  0  0  0  0  0  0  0
   44.5619   32.1171   49.5795 H   0  0  0  0  0  0  0  0  0  0  0  0
   47.6726   30.0921   46.2842 H   0  0  0  0  0  0  0  0  0  0  0  0
   45.8758   33.7483   40.1461 H   0  0  0  0  0  0  0  0  0  0  0  0
   47.8513   35.2911   39.8842 H   0  0  0  0  0  0  0  0  0  0  0  0
   49.3766   35.6631   41.9056 H   0  0  0  0  0  0  0  0  0  0  0  0
   45.4886   35.2938   44.1626 H   0  0  0  0  0  0  0  0  0  0  0  0
  1  9  2  0
  2  1  1  0
  2  3  2  0
  3  4  1  0
  4  8  2  0
  4  5  1  0
  5  6  1  0
  7  6  2  0
  8  7  1  0
  9  8  1  0
 10 15  2  0
 11 10  1  0
 11 12  2  0
 12 13  1  0
 13 14  2  0
 14  2  1  0
 15 14  1  0
 16  3  1  0
 16 17  2  0
  1 18  1  0
  5 19  1  0
  6 20  1  0
  9 21  1  0
 10 22  1  0
 11 23  1  0
 12 24  1  0
 16 25  1  0
M  ISO  8  18  14  19   9  20  14  21  14  22  14  23  14  24  14  25   6
M  END
>  <minimizedAffinity>  (1) 
-5.17827845

>  <minimizedRMSD>  (1) 
0.996855259

$$$$
