
     RDKit          3D

 38 42  0  0  0  0  0  0  0  0999 V2000
   45.8590   32.6250   44.9620 C   0  0  0  0  0  0  0  0  0  0  0  0
   45.8510   32.7210   43.5930 C   0  0  0  0  0  0  0  0  0  0  0  0
   46.6730   31.9420   42.7740 C   0  0  0  0  0  0  0  0  0  0  0  0
   47.5450   31.0250   43.3650 C   0  0  0  0  0  0  0  0  0  0  0  0
   48.4630   30.1290   42.9040 N   0  0  0  0  0  0  0  0  0  0  0  0
   49.0150   29.5060   43.9720 C   0  0  0  0  0  0  0  0  0  0  0  0
   48.4340   30.0230   45.0690 N   0  0  0  0  0  0  0  0  0  0  0  0
   47.5310   30.9520   44.7420 C   0  0  0  0  0  0  0  0  0  0  0  0
   46.7290   31.7090   45.5560 C   0  0  0  0  0  0  0  0  0  0  0  0
   46.7360   31.9870   41.3210 C   0  0  0  0  0  0  0  0  0  0  0  0
   46.1990   31.0840   40.4180 C   0  0  0  0  0  0  0  0  0  0  0  0
   46.3590   31.2690   39.0630 C   0  0  0  0  0  0  0  0  0  0  0  0
   47.0670   32.3780   38.6030 C   0  0  0  0  0  0  0  0  0  0  0  0
   47.2180   32.5500   37.2880 N   0  0  0  0  0  0  0  0  0  0  0  0
   47.8860   33.5880   36.7580 C   0  0  0  0  0  0  0  0  0  0  0  0
   48.4370   34.5140   37.6050 C   0  0  0  0  0  0  0  0  0  0  0  0
   48.3030   34.3710   38.9720 C   0  0  0  0  0  0  0  0  0  0  0  0
   47.6150   33.2970   39.4930 C   0  0  0  0  0  0  0  0  0  0  0  0
   47.4380   33.0860   40.8510 C   0  0  0  0  0  0  0  0  0  0  0  0
   44.3450   35.8370   42.3430 C   0  0  0  0  0  0  0  0  0  0  0  0
   43.2220   35.3610   41.6290 C   0  0  0  0  0  0  0  0  0  0  0  0
   42.9990   33.9800   41.5870 C   0  0  0  0  0  0  0  0  0  0  0  0
   43.8910   33.1850   42.2450 N   0  0  0  0  0  0  0  0  0  0  0  0
   44.9620   33.6560   42.9240 C   0  0  0  0  0  0  0  0  0  0  0  0
   45.1750   34.9680   42.9640 N   0  0  0  0  0  0  0  0  0  0  0  0
   45.1969   33.2537   45.5755 H   0  0  0  0  0  0  0  0  0  0  0  0
   48.6961   29.9560   41.9157 H   0  0  0  0  0  0  0  0  0  0  0  0
   49.7904   28.7262   43.9470 H   0  0  0  0  0  0  0  0  0  0  0  0
   46.7699   31.5975   46.6496 H   0  0  0  0  0  0  0  0  0  0  0  0
   45.6398   30.2115   40.7868 H   0  0  0  0  0  0  0  0  0  0  0  0
   45.9320   30.5482   38.3501 H   0  0  0  0  0  0  0  0  0  0  0  0
   47.9886   33.6925   35.6678 H   0  0  0  0  0  0  0  0  0  0  0  0
   48.9875   35.3735   37.1948 H   0  0  0  0  0  0  0  0  0  0  0  0
   48.7471   35.1172   39.6473 H   0  0  0  0  0  0  0  0  0  0  0  0
   47.8621   33.8034   41.5689 H   0  0  0  0  0  0  0  0  0  0  0  0
   44.5447   36.9175   42.3939 H   0  0  0  0  0  0  0  0  0  0  0  0
   42.5407   36.0581   41.1193 H   0  0  0  0  0  0  0  0  0  0  0  0
   42.1410   33.5538   41.0464 H   0  0  0  0  0  0  0  0  0  0  0  0
  1  9  2  0
  2  1  1  0
  3  4  1  0
  3  2  2  0
  4  8  2  0
  5  4  1  0
  5  6  1  0
  6  7  2  0
  8  7  1  0
  8  9  1  0
 10  3  1  0
 11 10  2  0
 12 11  1  0
 13 12  2  0
 13 18  1  0
 14 13  1  0
 15 14  2  0
 15 16  1  0
 16 17  2  0
 17 18  1  0
 18 19  2  0
 19 10  1  0
 20 25  2  0
 21 20  1  0
 22 21  2  0
 22 23  1  0
 23 24  2  0
 24 25  1  0
 24  2  1  0
  1 26  1  0
  5 27  1  0
  6 28  1  0
  9 29  1  0
 11 30  1  0
 12 31  1  0
 15 32  1  0
 16 33  1  0
 17 34  1  0
 19 35  1  0
 20 36  1  0
 21 37  1  0
 22 38  1  0
M  ISO  8  26  14  27   9  28  14  29  14  30  14  31  14  32  14  33  14
M  ISO  5  34  14  35  14  36  14  37  14  38  14
M  END
>  <minimizedAffinity>  (1) 
-4.68341351

>  <minimizedRMSD>  (1) 
6.12031364

$$$$
