
     RDKit          3D

 40 43  0  0  1  0  0  0  0  0999 V2000
   47.8800   32.9310   42.5320 C   0  0  0  0  0  0  0  0  0  0  0  0
   46.8940   33.5300   41.7530 C   0  0  0  0  0  0  0  0  0  0  0  0
   45.7810   34.1460   42.2870 C   0  0  0  0  0  0  0  0  0  0  0  0
   45.6200   34.1780   43.6810 C   0  0  0  0  0  0  0  0  0  0  0  0
   44.7050   34.6670   44.5270 N   0  0  0  0  0  0  0  0  0  0  0  0
   45.0700   34.4020   45.7960 C   0  0  0  0  0  0  0  0  0  0  0  0
   46.2290   33.7400   45.7080 N   0  0  0  0  0  0  0  0  0  0  0  0
   46.6040   33.5810   44.4240 C   0  0  0  0  0  0  0  0  0  0  0  0
   47.7360   32.9520   43.9190 C   0  0  0  0  0  0  0  0  0  0  0  0
   46.4130   32.6380   38.2280 C   0  0  0  0  0  0  0  0  0  0  0  0
   47.3340   33.4620   37.5730 C   0  0  0  0  0  0  0  0  0  0  0  0
   48.1160   34.3210   38.3470 C   0  0  0  0  0  0  0  0  0  0  0  0
   47.9520   34.3230   39.7070 N   0  0  0  0  0  0  0  0  0  0  0  0
   47.0450   33.5050   40.3010 C   0  0  0  0  0  0  0  0  0  0  0  0
   46.2550   32.6450   39.5870 N   0  0  0  0  0  0  0  0  0  0  0  0
   44.5380   34.9020   41.2730 S   0  0  0  0  0  0  0  0  0  0  0  0
   41.9390   35.1240   41.6030 N   0  0  0  0  0  0  0  0  0  0  0  0
   42.9300   34.0970   41.3630 C   0  0  1  0  0  0  0  0  0  0  0  0
   42.7130   33.4340   40.0020 C   0  0  0  0  0  0  0  0  0  0  0  0
   41.3860   33.1600   39.7280 O   0  0  0  0  0  0  0  0  0  0  0  0
   40.5160   33.3080   40.7890 C   0  0  0  0  0  0  0  0  0  0  0  0
   40.6070   34.7180   41.2900 C   0  0  2  0  0  0  0  0  0  0  0  0
   40.0130   35.7060   40.2850 C   0  0  0  0  0  0  0  0  0  0  0  0
   40.9600   35.9910   39.3230 F   0  0  0  0  0  0  0  0  0  0  0  0
   38.8720   35.1750   39.7160 F   0  0  0  0  0  0  0  0  0  0  0  0
   39.7290   36.9180   40.9130 F   0  0  0  0  0  0  0  0  0  0  0  0
   48.7528   32.4520   42.0642 H   0  0  0  0  0  0  0  0  0  0  0  0
   43.8503   35.1703   44.2492 H   0  0  0  0  0  0  0  0  0  0  0  0
   44.5279   34.6735   46.7138 H   0  0  0  0  0  0  0  0  0  0  0  0
   48.4834   32.4923   44.5824 H   0  0  0  0  0  0  0  0  0  0  0  0
   45.7915   31.9578   37.6271 H   0  0  0  0  0  0  0  0  0  0  0  0
   47.4392   33.4339   36.4784 H   0  0  0  0  0  0  0  0  0  0  0  0
   48.8525   34.9860   37.8722 H   0  0  0  0  0  0  0  0  0  0  0  0
   41.9744   35.3841   42.5990 H   0  0  0  0  0  0  0  0  0  0  0  0
   42.8612   33.3475   42.1652 H   0  0  0  0  0  0  0  0  0  0  0  0
   43.0981   34.1067   39.2215 H   0  0  0  0  0  0  0  0  0  0  0  0
   43.2449   32.4714   40.0223 H   0  0  0  0  0  0  0  0  0  0  0  0
   39.4883   33.0983   40.4574 H   0  0  0  0  0  0  0  0  0  0  0  0
   40.7816   32.6059   41.5931 H   0  0  0  0  0  0  0  0  0  0  0  0
   40.0226   34.7302   42.2218 H   0  0  0  0  0  0  0  0  0  0  0  0
  1  9  2  0
  2  3  2  0
  2  1  1  0
  3  4  1  0
  4  8  2  0
  4  5  1  0
  5  6  1  0
  7  6  2  0
  8  7  1  0
  9  8  1  0
 10 15  2  0
 11 10  1  0
 11 12  2  0
 12 13  1  0
 13 14  2  0
 14  2  1  0
 15 14  1  0
 16 18  1  0
 16  3  1  0
 18 17  1  0
 19 18  1  0
 20 19  1  0
 20 21  1  0
 21 22  1  0
 22 17  1  0
 23 26  1  0
 23 22  1  0
 24 23  1  0
 25 23  1  0
  1 27  1  0
  5 28  1  0
  6 29  1  0
  9 30  1  0
 10 31  1  0
 11 32  1  0
 12 33  1  0
 17 34  1  0
 18 35  1  1
 19 36  1  0
 19 37  1  0
 21 38  1  0
 21 39  1  0
 22 40  1  1
M  ISO  8  27  14  28   9  29  14  30  14  31  14  32  14  33  14  34   5
M  ISO  6  35  13  36  13  37  13  38  13  39  13  40  13
M  END
>  <minimizedAffinity>  (1) 
-6.5961709

>  <minimizedRMSD>  (1) 
1.94099951

$$$$
