
     RDKit          3D

 27 29  0  0  0  0  0  0  0  0999 V2000
   46.1130   33.0550   46.0840 C   0  0  0  0  0  0  0  0  0  0  0  0
   45.5980   32.7640   47.3770 C   0  0  0  0  0  0  0  0  0  0  0  0
   46.1270   31.7360   48.0770 C   0  0  0  0  0  0  0  0  0  0  0  0
   47.1710   30.9830   47.5060 C   0  0  0  0  0  0  0  0  0  0  0  0
   47.3890   31.8010   45.8950 S   0  0  0  0  0  0  0  0  0  0  0  0
   49.5210   31.3790   49.4470 Cl  0  0  0  0  0  0  0  0  0  0  0  0
   49.0230   29.8580   48.7410 C   0  0  0  0  0  0  0  0  0  0  0  0
   47.9400   29.9010   47.8920 C   0  0  0  0  0  0  0  0  0  0  0  0
   47.6510   28.6220   47.4010 C   0  0  0  0  0  0  0  0  0  0  0  0
   48.3470   27.4840   47.7180 C   0  0  0  0  0  0  0  0  0  0  0  0
   49.4130   27.5710   48.5790 C   0  0  0  0  0  0  0  0  0  0  0  0
   50.2960   26.1260   48.9820 Cl  0  0  0  0  0  0  0  0  0  0  0  0
   49.7720   28.7840   49.1130 C   0  0  0  0  0  0  0  0  0  0  0  0
   44.4080   36.0090   44.6270 C   0  0  0  0  0  0  0  0  0  0  0  0
   44.9850   36.0110   43.3330 C   0  0  0  0  0  0  0  0  0  0  0  0
   45.9230   35.0100   43.0200 C   0  0  0  0  0  0  0  0  0  0  0  0
   46.2270   34.0840   43.9940 N   0  0  0  0  0  0  0  0  0  0  0  0
   45.6430   34.1330   45.2130 C   0  0  0  0  0  0  0  0  0  0  0  0
   44.7350   35.0880   45.5380 N   0  0  0  0  0  0  0  0  0  0  0  0
   44.7813   33.3665   47.8012 H   0  0  0  0  0  0  0  0  0  0  0  0
   45.7470   31.4907   49.0797 H   0  0  0  0  0  0  0  0  0  0  0  0
   46.8018   28.5227   46.7089 H   0  0  0  0  0  0  0  0  0  0  0  0
   48.0553   26.5143   47.2883 H   0  0  0  0  0  0  0  0  0  0  0  0
   50.6209   28.8827   49.8055 H   0  0  0  0  0  0  0  0  0  0  0  0
   43.6729   36.7846   44.8880 H   0  0  0  0  0  0  0  0  0  0  0  0
   44.7069   36.7752   42.5923 H   0  0  0  0  0  0  0  0  0  0  0  0
   46.3986   34.9680   42.0290 H   0  0  0  0  0  0  0  0  0  0  0  0
  1  2  2  0
  2  3  1  0
  4  8  1  0
  4  3  2  0
  5  1  1  0
  5  4  1  0
  7 13  2  0
  7  6  1  0
  8  7  1  0
  9 10  1  0
  9  8  2  0
 10 11  2  0
 11 12  1  0
 11 13  1  0
 14 19  2  0
 15 14  1  0
 16 15  2  0
 16 17  1  0
 17 18  2  0
 18 19  1  0
 18  1  1  0
  2 20  1  0
  3 21  1  0
  9 22  1  0
 10 23  1  0
 13 24  1  0
 14 25  1  0
 15 26  1  0
 16 27  1  0
M  ISO  8  20  14  21  14  22  14  23  14  24  14  25  14  26  14  27  14
M  END
>  <minimizedAffinity>  (1) 
-4.9286952

>  <minimizedRMSD>  (1) 
1.25886965

$$$$
