
     RDKit          3D

 26 28  0  0  0  0  0  0  0  0999 V2000
   46.6700   31.8570   45.6530 C   0  0  0  0  0  0  0  0  0  0  0  0
   47.4730   31.0480   44.8000 C   0  0  0  0  0  0  0  0  0  0  0  0
   47.9420   31.6030   43.6540 C   0  0  0  0  0  0  0  0  0  0  0  0
   47.6190   32.9490   43.3540 C   0  0  0  0  0  0  0  0  0  0  0  0
   46.5830   33.4460   44.8020 S   0  0  0  0  0  0  0  0  0  0  0  0
   45.0700   29.8880   48.3790 C   0  0  0  0  0  0  0  0  0  0  0  0
   45.1510   30.8360   49.4320 C   0  0  0  0  0  0  0  0  0  0  0  0
   45.7410   32.0840   49.1630 C   0  0  0  0  0  0  0  0  0  0  0  0
   46.2090   32.3160   47.8830 N   0  0  0  0  0  0  0  0  0  0  0  0
   46.1020   31.3700   46.9220 C   0  0  0  0  0  0  0  0  0  0  0  0
   45.5370   30.1580   47.1540 N   0  0  0  0  0  0  0  0  0  0  0  0
   47.9690   33.7710   42.2430 C   0  0  0  0  0  0  0  0  0  0  0  0
   47.5990   33.4420   40.9600 C   0  0  0  0  0  0  0  0  0  0  0  0
   47.9750   34.2870   39.9400 C   0  0  0  0  0  0  0  0  0  0  0  0
   48.7100   35.4470   40.1730 C   0  0  0  0  0  0  0  0  0  0  0  0
   49.0350   35.6930   41.4910 C   0  0  0  0  0  0  0  0  0  0  0  0
   48.6780   34.8790   42.5170 N   0  0  0  0  0  0  0  0  0  0  0  0
   47.7060   30.0053   45.0618 H   0  0  0  0  0  0  0  0  0  0  0  0
   48.5661   31.0141   42.9657 H   0  0  0  0  0  0  0  0  0  0  0  0
   44.6121   28.9071   48.5744 H   0  0  0  0  0  0  0  0  0  0  0  0
   44.7620   30.6005   50.4336 H   0  0  0  0  0  0  0  0  0  0  0  0
   45.8274   32.8514   49.9464 H   0  0  0  0  0  0  0  0  0  0  0  0
   47.0193   32.5300   40.7546 H   0  0  0  0  0  0  0  0  0  0  0  0
   47.6857   34.0381   38.9083 H   0  0  0  0  0  0  0  0  0  0  0  0
   49.0116   36.1228   39.3592 H   0  0  0  0  0  0  0  0  0  0  0  0
   49.6152   36.5983   41.7232 H   0  0  0  0  0  0  0  0  0  0  0  0
  1 10  1  0
  2  1  2  0
  3  2  1  0
  4  3  2  0
  4  5  1  0
  5  1  1  0
  6  7  2  0
  8  7  1  0
  9  8  2  0
 10 11  2  0
 10  9  1  0
 11  6  1  0
 12 17  1  0
 12  4  1  0
 13 12  2  0
 14 15  2  0
 14 13  1  0
 15 16  1  0
 16 17  2  0
  2 18  1  0
  3 19  1  0
  6 20  1  0
  7 21  1  0
  8 22  1  0
 13 23  1  0
 14 24  1  0
 15 25  1  0
 16 26  1  0
M  ISO  8  18  14  19  14  20  14  21  14  22  14  23  14  24  14  25  14
M  ISO  1  26  14
M  END
>  <minimizedAffinity>  (1) 
-4.80337524

>  <minimizedRMSD>  (1) 
7.4875946

$$$$
