
     RDKit          3D

 19 20  0  0  0  0  0  0  0  0999 V2000
   45.8560   33.2810   46.3760 C   0  0  0  0  0  0  0  0  0  0  0  0
   45.1340   33.1270   47.5850 C   0  0  0  0  0  0  0  0  0  0  0  0
   45.5380   32.1890   48.4690 C   0  0  0  0  0  0  0  0  0  0  0  0
   46.6690   31.3920   48.1570 C   0  0  0  0  0  0  0  0  0  0  0  0
   47.1660   32.0270   46.5180 S   0  0  0  0  0  0  0  0  0  0  0  0
   44.4590   36.0790   44.3850 C   0  0  0  0  0  0  0  0  0  0  0  0
   45.1620   35.8810   43.1670 C   0  0  0  0  0  0  0  0  0  0  0  0
   46.0640   34.8180   43.0890 C   0  0  0  0  0  0  0  0  0  0  0  0
   46.2150   34.0300   44.1980 N   0  0  0  0  0  0  0  0  0  0  0  0
   45.5210   34.2600   45.3340 C   0  0  0  0  0  0  0  0  0  0  0  0
   44.6400   35.2870   45.4330 N   0  0  0  0  0  0  0  0  0  0  0  0
   47.3610   30.3200   48.8520 C   0  0  0  0  0  0  0  0  0  0  0  0
   48.3360   30.6880   49.5280 O   0  0  0  0  0  0  0  0  0  0  0  0
   44.2603   33.7598   47.8000 H   0  0  0  0  0  0  0  0  0  0  0  0
   44.9980   32.0454   49.4165 H   0  0  0  0  0  0  0  0  0  0  0  0
   43.7448   36.9122   44.4611 H   0  0  0  0  0  0  0  0  0  0  0  0
   45.0001   36.5478   42.3073 H   0  0  0  0  0  0  0  0  0  0  0  0
   46.6333   34.6208   42.1687 H   0  0  0  0  0  0  0  0  0  0  0  0
   47.0470   29.2679   48.7850 H   0  0  0  0  0  0  0  0  0  0  0  0
  1  5  1  0
  1  2  2  0
  2  3  1  0
  4  3  2  0
  4 12  1  0
  5  4  1  0
  6 11  2  0
  7  6  1  0
  8  7  2  0
  8  9  1  0
  9 10  2  0
 10 11  1  0
 10  1  1  0
 12 13  2  0
  2 14  1  0
  3 15  1  0
  6 16  1  0
  7 17  1  0
  8 18  1  0
 12 19  1  0
M  ISO  6  14  14  15  14  16  14  17  14  18  14  19   6
M  END
>  <minimizedAffinity>  (1) 
-4.13874149

>  <minimizedRMSD>  (1) 
0.489356548

$$$$
