
     RDKit          3D

 36 38  0  0  1  0  0  0  0  0999 V2000
   46.7630   30.9640   47.0110 C   0  0  1  0  0  0  0  0  0  0  0  0
   46.9830   32.0640   47.9930 C   0  0  0  0  0  0  0  0  0  0  0  0
   45.8690   32.2690   48.9710 C   0  0  0  0  0  0  0  0  0  0  0  0
   45.3250   30.9700   49.5190 C   0  0  0  0  0  0  0  0  0  0  0  0
   45.1030   29.9350   48.4490 C   0  0  0  0  0  0  0  0  0  0  0  0
   45.2700   30.5750   47.0610 C   0  0  2  0  0  0  0  0  0  0  0  0
   47.7390   32.5710   43.3740 C   0  0  0  0  0  0  0  0  0  0  0  0
   48.2460   31.2710   43.5330 C   0  0  0  0  0  0  0  0  0  0  0  0
   47.9810   30.6310   44.6940 C   0  0  0  0  0  0  0  0  0  0  0  0
   47.2230   31.2690   45.6960 C   0  0  0  0  0  0  0  0  0  0  0  0
   46.8570   32.8850   44.9410 S   0  0  0  0  0  0  0  0  0  0  0  0
   47.8400   33.9410   39.9160 C   0  0  0  0  0  0  0  0  0  0  0  0
   48.4720   35.1850   40.1700 C   0  0  0  0  0  0  0  0  0  0  0  0
   48.8320   35.4980   41.5060 C   0  0  0  0  0  0  0  0  0  0  0  0
   48.5390   34.5620   42.4550 N   0  0  0  0  0  0  0  0  0  0  0  0
   47.9380   33.3910   42.1740 C   0  0  0  0  0  0  0  0  0  0  0  0
   47.5960   33.0950   40.9070 N   0  0  0  0  0  0  0  0  0  0  0  0
   44.9980   29.4640   46.0600 C   0  0  0  0  0  0  0  0  0  0  0  0
   44.8590   29.9670   44.7810 F   0  0  0  0  0  0  0  0  0  0  0  0
   46.0060   28.5300   46.1270 F   0  0  0  0  0  0  0  0  0  0  0  0
   43.8210   28.8650   46.4240 F   0  0  0  0  0  0  0  0  0  0  0  0
   47.3782   30.0981   47.2969 H   0  0  0  0  0  0  0  0  0  0  0  0
   47.8980   31.8376   48.5601 H   0  0  0  0  0  0  0  0  0  0  0  0
   47.0522   32.9917   47.4060 H   0  0  0  0  0  0  0  0  0  0  0  0
   46.2441   32.8745   49.8093 H   0  0  0  0  0  0  0  0  0  0  0  0
   45.0491   32.7732   48.4385 H   0  0  0  0  0  0  0  0  0  0  0  0
   46.0411   30.5701   50.2520 H   0  0  0  0  0  0  0  0  0  0  0  0
   44.3495   31.1864   49.9790 H   0  0  0  0  0  0  0  0  0  0  0  0
   45.8368   29.1242   48.5677 H   0  0  0  0  0  0  0  0  0  0  0  0
   44.0843   29.5303   48.5416 H   0  0  0  0  0  0  0  0  0  0  0  0
   44.6164   31.4360   46.8573 H   0  0  0  0  0  0  0  0  0  0  0  0
   48.8382   30.7902   42.7404 H   0  0  0  0  0  0  0  0  0  0  0  0
   48.3578   29.6104   44.8567 H   0  0  0  0  0  0  0  0  0  0  0  0
   47.5500   33.6761   38.8885 H   0  0  0  0  0  0  0  0  0  0  0  0
   48.6780   35.8899   39.3511 H   0  0  0  0  0  0  0  0  0  0  0  0
   49.3229   36.4479   41.7642 H   0  0  0  0  0  0  0  0  0  0  0  0
  1  6  1  0
  1  2  1  0
  2  3  1  0
  3  4  1  0
  5  4  1  0
  6  5  1  0
  7  8  2  0
  7 11  1  0
  8  9  1  0
  9 10  2  0
 10  1  1  0
 11 10  1  0
 12 13  2  0
 12 17  1  0
 13 14  1  0
 14 15  2  0
 16 15  1  0
 16  7  1  0
 17 16  2  0
 18 20  1  0
 18 21  1  0
 18  6  1  0
 19 18  1  0
  1 22  1  1
  2 23  1  0
  2 24  1  0
  3 25  1  0
  3 26  1  0
  4 27  1  0
  4 28  1  0
  5 29  1  0
  5 30  1  0
  6 31  1  6
  8 32  1  0
  9 33  1  0
 12 34  1  0
 13 35  1  0
 14 36  1  0
M  ISO  8  22  13  23  13  24  13  25  13  26  13  27  13  28  13  29  13
M  ISO  7  30  13  31  13  32  14  33  14  34  14  35  14  36  14
M  END
>  <minimizedAffinity>  (1) 
-5.26075172

>  <minimizedRMSD>  (1) 
5.00555277

$$$$
