
     RDKit          3D

 42 45  0  0  1  0  0  0  0  0999 V2000
   48.4420   29.0260   48.0200 C   0  0  1  0  0  0  0  0  0  0  0  0
   48.3240   28.0710   46.8860 C   0  0  0  0  0  0  0  0  0  0  0  0
   49.5800   27.2830   46.6150 C   0  0  0  0  0  0  0  0  0  0  0  0
   50.2370   26.7560   47.8530 C   0  0  0  0  0  0  0  0  0  0  0  0
   50.2670   27.7620   48.9760 C   0  0  0  0  0  0  0  0  0  0  0  0
   49.9140   29.1560   48.4270 C   0  0  2  0  0  0  0  0  0  0  0  0
   46.6710   32.4080   46.5580 C   0  0  0  0  0  0  0  0  0  0  0  0
   46.8170   32.4390   47.9410 C   0  0  0  0  0  0  0  0  0  0  0  0
   47.3810   31.3900   48.5400 C   0  0  0  0  0  0  0  0  0  0  0  0
   47.8190   30.2780   47.7760 C   0  0  0  0  0  0  0  0  0  0  0  0
   47.3840   30.7740   46.0760 S   0  0  0  0  0  0  0  0  0  0  0  0
   44.6670   35.2640   45.2510 C   0  0  0  0  0  0  0  0  0  0  0  0
   45.2060   35.3830   43.9720 C   0  0  0  0  0  0  0  0  0  0  0  0
   46.2240   34.4910   43.6060 C   0  0  0  0  0  0  0  0  0  0  0  0
   46.6290   33.5590   44.5170 N   0  0  0  0  0  0  0  0  0  0  0  0
   46.0810   33.4810   45.7390 C   0  0  0  0  0  0  0  0  0  0  0  0
   45.1000   34.3370   46.0970 N   0  0  0  0  0  0  0  0  0  0  0  0
   50.0970   30.1650   49.4640 C   0  0  0  0  0  0  0  0  0  0  0  0
   49.5000   30.0910   50.5660 O   0  0  0  0  0  0  0  0  0  0  0  0
   50.8390   31.3840   49.6760 C   0  0  0  0  0  0  0  0  0  0  0  0
   52.0940   31.5850   49.1600 C   0  0  0  0  0  0  0  0  0  0  0  0
   52.5140   32.8460   49.4930 N   0  0  0  0  0  0  0  0  0  0  0  0
   51.5670   33.4500   50.2040 C   0  0  0  0  0  0  0  0  0  0  0  0
   50.6220   32.5420   50.2720 N   0  0  0  0  0  0  0  0  0  0  0  0
   47.8797   28.6132   48.8705 H   0  0  0  0  0  0  0  0  0  0  0  0
   47.5135   27.3628   47.1131 H   0  0  0  0  0  0  0  0  0  0  0  0
   48.1233   28.6697   45.9853 H   0  0  0  0  0  0  0  0  0  0  0  0
   49.3231   26.4311   45.9683 H   0  0  0  0  0  0  0  0  0  0  0  0
   50.2948   27.9700   46.1385 H   0  0  0  0  0  0  0  0  0  0  0  0
   49.6843   25.8676   48.1925 H   0  0  0  0  0  0  0  0  0  0  0  0
   51.2796   26.5167   47.5967 H   0  0  0  0  0  0  0  0  0  0  0  0
   49.5348   27.4748   49.7450 H   0  0  0  0  0  0  0  0  0  0  0  0
   51.2737   27.7869   49.4186 H   0  0  0  0  0  0  0  0  0  0  0  0
   50.5493   29.4693   47.5854 H   0  0  0  0  0  0  0  0  0  0  0  0
   46.4760   33.3064   48.5252 H   0  0  0  0  0  0  0  0  0  0  0  0
   47.5074   31.3868   49.6327 H   0  0  0  0  0  0  0  0  0  0  0  0
   43.8677   35.9510   45.5659 H   0  0  0  0  0  0  0  0  0  0  0  0
   44.8450   36.1513   43.2724 H   0  0  0  0  0  0  0  0  0  0  0  0
   46.6851   34.5412   42.6086 H   0  0  0  0  0  0  0  0  0  0  0  0
   52.6695   30.8530   48.5743 H   0  0  0  0  0  0  0  0  0  0  0  0
   53.4205   33.2605   49.2334 H   0  0  0  0  0  0  0  0  0  0  0  0
   51.5738   34.4637   50.6311 H   0  0  0  0  0  0  0  0  0  0  0  0
  1  6  1  0
  2  1  1  0
  3  2  1  0
  3  4  1  0
  4  5  1  0
  6  5  1  0
  6 18  1  0
  7  8  2  0
  8  9  1  0
 10  1  1  0
 10  9  2  0
 11  7  1  0
 11 10  1  0
 12 17  2  0
 13 12  1  0
 14 13  2  0
 14 15  1  0
 15 16  2  0
 16 17  1  0
 16  7  1  0
 18 20  1  0
 18 19  2  0
 20 24  1  0
 21 22  1  0
 21 20  2  0
 22 23  1  0
 23 24  2  0
  1 25  1  1
  2 26  1  0
  2 27  1  0
  3 28  1  0
  3 29  1  0
  4 30  1  0
  4 31  1  0
  5 32  1  0
  5 33  1  0
  6 34  1  6
  8 35  1  0
  9 36  1  0
 12 37  1  0
 13 38  1  0
 14 39  1  0
 21 40  1  0
 22 41  1  0
 23 42  1  0
M  ISO  8  25  13  26  13  27  13  28  13  29  13  30  13  31  13  32  13
M  ISO  8  33  13  34  13  35  14  36  14  37  14  38  14  39  14  40  14
M  ISO  2  41   9  42  14
M  END
>  <minimizedAffinity>  (1) 
-5.39428091

>  <minimizedRMSD>  (1) 
1.99096465

$$$$
