
     RDKit          3D

 45 48  0  0  1  0  0  0  0  0999 V2000
   48.5350   29.0200   48.2430 C   0  0  1  0  0  0  0  0  0  0  0  0
   48.4840   28.0220   47.1300 C   0  0  0  0  0  0  0  0  0  0  0  0
   49.7910   27.2970   46.8970 C   0  0  0  0  0  0  0  0  0  0  0  0
   50.4480   26.8360   48.1610 C   0  0  0  0  0  0  0  0  0  0  0  0
   50.4200   27.8800   49.2310 C   0  0  0  0  0  0  0  0  0  0  0  0
   50.0050   29.2560   48.6370 C   0  0  2  0  0  0  0  0  0  0  0  0
   46.7730   32.3300   46.5820 C   0  0  0  0  0  0  0  0  0  0  0  0
   46.8080   32.3670   47.9710 C   0  0  0  0  0  0  0  0  0  0  0  0
   47.3550   31.3410   48.6170 C   0  0  0  0  0  0  0  0  0  0  0  0
   47.8870   30.2480   47.9000 C   0  0  0  0  0  0  0  0  0  0  0  0
   47.5780   30.7170   46.1660 S   0  0  0  0  0  0  0  0  0  0  0  0
   44.8040   35.1270   45.1010 C   0  0  0  0  0  0  0  0  0  0  0  0
   45.4010   35.2190   43.8450 C   0  0  0  0  0  0  0  0  0  0  0  0
   46.4490   34.3290   43.5590 C   0  0  0  0  0  0  0  0  0  0  0  0
   46.8190   33.4320   44.5170 N   0  0  0  0  0  0  0  0  0  0  0  0
   46.2180   33.3780   45.7130 C   0  0  0  0  0  0  0  0  0  0  0  0
   45.2040   34.2330   46.0020 N   0  0  0  0  0  0  0  0  0  0  0  0
   50.1460   30.2890   49.6240 C   0  0  0  0  0  0  0  0  0  0  0  0
   49.4360   30.3130   50.6150 O   0  0  0  0  0  0  0  0  0  0  0  0
   51.2090   33.8550   50.1260 N   0  0  0  0  0  0  0  0  0  0  0  0
   50.7140   32.6900   49.6950 C   0  0  0  0  0  0  0  0  0  0  0  0
   50.6630   31.4320   50.2380 C   0  0  0  0  0  0  0  0  0  0  0  0
   51.2720   31.4060   51.5080 C   0  0  0  0  0  0  0  0  0  0  0  0
   51.4290   30.4300   52.3320 O   0  0  0  0  0  0  0  0  0  0  0  0
   51.8170   32.5620   52.0460 N   0  0  0  0  0  0  0  0  0  0  0  0
   51.7480   33.6810   51.3320 C   0  0  0  0  0  0  0  0  0  0  0  0
   52.2750   34.6840   51.9140 O   0  0  0  0  0  0  0  0  0  0  0  0
   47.9830   28.6129   49.1030 H   0  0  0  0  0  0  0  0  0  0  0  0
   47.7118   27.2759   47.3688 H   0  0  0  0  0  0  0  0  0  0  0  0
   48.2603   28.5812   46.2095 H   0  0  0  0  0  0  0  0  0  0  0  0
   49.5946   26.4181   46.2654 H   0  0  0  0  0  0  0  0  0  0  0  0
   50.4767   28.0097   46.4155 H   0  0  0  0  0  0  0  0  0  0  0  0
   49.9225   25.9414   48.5264 H   0  0  0  0  0  0  0  0  0  0  0  0
   51.5017   26.6188   47.9316 H   0  0  0  0  0  0  0  0  0  0  0  0
   49.6955   27.5862   50.0048 H   0  0  0  0  0  0  0  0  0  0  0  0
   51.4255   27.9693   49.6680 H   0  0  0  0  0  0  0  0  0  0  0  0
   50.6202   29.5884   47.7879 H   0  0  0  0  0  0  0  0  0  0  0  0
   46.3935   33.2238   48.5225 H   0  0  0  0  0  0  0  0  0  0  0  0
   47.3929   31.3444   49.7163 H   0  0  0  0  0  0  0  0  0  0  0  0
   43.9807   35.8112   45.3542 H   0  0  0  0  0  0  0  0  0  0  0  0
   45.0641   35.9606   43.1057 H   0  0  0  0  0  0  0  0  0  0  0  0
   46.9594   34.3549   42.5849 H   0  0  0  0  0  0  0  0  0  0  0  0
   51.1785   34.7449   49.6083 H   0  0  0  0  0  0  0  0  0  0  0  0
   50.2522   32.7541   48.6987 H   0  0  0  0  0  0  0  0  0  0  0  0
   52.2634   32.5538   52.9742 H   0  0  0  0  0  0  0  0  0  0  0  0
  1  6  1  0
  2  1  1  0
  3  2  1  0
  3  4  1  0
  4  5  1  0
  6  5  1  0
  6 18  1  0
  7  8  2  0
  8  9  1  0
 10  1  1  0
 10  9  2  0
 11  7  1  0
 11 10  1  0
 12 17  2  0
 13 12  1  0
 14 13  2  0
 14 15  1  0
 15 16  2  0
 16 17  1  0
 16  7  1  0
 18 22  1  0
 18 19  2  0
 20 26  1  0
 21 20  1  0
 21 22  2  0
 22 23  1  0
 23 25  1  0
 23 24  2  0
 26 27  2  0
 26 25  1  0
  1 28  1  1
  2 29  1  0
  2 30  1  0
  3 31  1  0
  3 32  1  0
  4 33  1  0
  4 34  1  0
  5 35  1  0
  5 36  1  0
  6 37  1  6
  8 38  1  0
  9 39  1  0
 12 40  1  0
 13 41  1  0
 14 42  1  0
 20 43  1  0
 21 44  1  0
 25 45  1  0
M  ISO  8  28  13  29  13  30  13  31  13  32  13  33  13  34  13  35  13
M  ISO  8  36  13  37  13  38  14  39  14  40  14  41  14  42  14  43   9
M  ISO  2  44  14  45   9
M  END
>  <minimizedAffinity>  (1) 
-5.88454819

>  <minimizedRMSD>  (1) 
2.16401172

$$$$
