
     RDKit          3D

 24 26  0  0  0  0  0  0  0  0999 V2000
   45.1180   34.0450   45.5720 C   0  0  0  0  0  0  0  0  0  0  0  0
   45.6100   33.8190   44.2750 C   0  0  0  0  0  0  0  0  0  0  0  0
   46.7170   32.9960   44.2150 C   0  0  0  0  0  0  0  0  0  0  0  0
   47.2490   32.4730   45.3810 N   0  0  0  0  0  0  0  0  0  0  0  0
   46.7390   32.7220   46.5880 C   0  0  0  0  0  0  0  0  0  0  0  0
   45.6640   33.5160   46.6640 N   0  0  0  0  0  0  0  0  0  0  0  0
   47.2520   32.5720   42.8650 C   0  0  0  0  0  0  0  0  0  0  0  0
   48.4280   33.4710   42.4620 C   0  0  0  0  0  0  0  0  0  0  0  0
   48.5670   31.9600   42.8250 C   0  0  0  0  0  0  0  0  0  0  0  0
   44.9160   34.4680   43.1840 C   0  0  0  0  0  0  0  0  0  0  0  0
   44.8020   35.7310   42.6870 C   0  0  0  0  0  0  0  0  0  0  0  0
   43.9260   35.7850   41.6300 C   0  0  0  0  0  0  0  0  0  0  0  0
   43.5080   34.5320   41.4920 N   0  0  0  0  0  0  0  0  0  0  0  0
   44.0820   33.7740   42.3900 N   0  0  0  0  0  0  0  0  0  0  0  0
   44.2365   34.6923   45.6904 H   0  0  0  0  0  0  0  0  0  0  0  0
   47.1881   32.2881   47.4935 H   0  0  0  0  0  0  0  0  0  0  0  0
   46.2953   32.2496   42.4283 H   0  0  0  0  0  0  0  0  0  0  0  0
   48.7996   34.2486   43.1456 H   0  0  0  0  0  0  0  0  0  0  0  0
   48.6870   34.1173   41.6104 H   0  0  0  0  0  0  0  0  0  0  0  0
   48.8061   31.2285   42.0390 H   0  0  0  0  0  0  0  0  0  0  0  0
   49.1757   31.3926   43.5444 H   0  0  0  0  0  0  0  0  0  0  0  0
   45.3450   36.6016   43.0835 H   0  0  0  0  0  0  0  0  0  0  0  0
   43.6373   36.6639   41.0349 H   0  0  0  0  0  0  0  0  0  0  0  0
   42.8337   34.2064   40.7847 H   0  0  0  0  0  0  0  0  0  0  0  0
  1  6  2  0
  2  1  1  0
  3  2  2  0
  3  4  1  0
  4  5  2  0
  5  6  1  0
  7  3  1  0
  8  9  1  0
  8  7  1  0
  9  7  1  0
 10  2  1  0
 11 10  1  0
 12 11  2  0
 13 12  1  0
 13 14  1  0
 14 10  2  0
  1 15  1  0
  5 16  1  0
  7 17  1  0
  8 18  1  0
  8 19  1  0
  9 20  1  0
  9 21  1  0
 11 22  1  0
 12 23  1  0
 13 24  1  0
M  ISO  8  15  14  16  14  17  13  18  13  19  13  20  13  21  13  22  14
M  ISO  2  23  14  24   9
M  END
>  <minimizedAffinity>  (1) 
-3.37780094

>  <minimizedRMSD>  (1) 
2.59045386

$$$$
