
     RDKit          3D

 32 34  0  0  1  0  0  0  0  0999 V2000
   46.3000   34.9360   42.0430 C   0  0  1  0  0  0  0  0  0  0  0  0
   47.8170   35.1850   41.8650 C   0  0  0  0  0  0  0  0  0  0  0  0
   47.0250   33.9670   41.3030 C   0  0  2  0  0  0  0  0  0  0  0  0
   44.7600   35.0500   45.4710 C   0  0  0  0  0  0  0  0  0  0  0  0
   45.0360   35.4180   44.1290 C   0  0  0  0  0  0  0  0  0  0  0  0
   46.0030   34.6450   43.5050 C   0  0  0  0  0  0  0  0  0  0  0  0
   46.6320   33.6060   44.1640 N   0  0  0  0  0  0  0  0  0  0  0  0
   46.3250   33.3100   45.4300 C   0  0  0  0  0  0  0  0  0  0  0  0
   45.3810   34.0370   46.0900 N   0  0  0  0  0  0  0  0  0  0  0  0
   44.4030   36.5120   43.4650 N   0  0  0  0  0  0  0  0  0  0  0  0
   46.2260   33.2080   38.9310 C   0  0  0  0  0  0  0  0  0  0  0  0
   47.0540   33.7980   39.8310 C   0  0  0  0  0  0  0  0  0  0  0  0
   48.1940   34.4260   39.3080 C   0  0  0  0  0  0  0  0  0  0  0  0
   48.4620   34.4440   37.9480 C   0  0  0  0  0  0  0  0  0  0  0  0
   47.6040   33.8390   37.0800 C   0  0  0  0  0  0  0  0  0  0  0  0
   46.4800   33.2180   37.5790 C   0  0  0  0  0  0  0  0  0  0  0  0
   44.8340   32.4080   39.5730 S   0  0  0  0  0  0  0  0  0  0  0  0
   44.3200   31.3970   38.5520 O   0  0  0  0  0  0  0  0  0  0  0  0
   43.7470   33.3610   39.9510 O   0  0  0  0  0  0  0  0  0  0  0  0
   45.3589   35.4542   41.8069 H   0  0  0  0  0  0  0  0  0  0  0  0
   48.1849   35.9770   41.1961 H   0  0  0  0  0  0  0  0  0  0  0  0
   48.6909   35.3537   42.5114 H   0  0  0  0  0  0  0  0  0  0  0  0
   47.0113   32.8708   41.3929 H   0  0  0  0  0  0  0  0  0  0  0  0
   44.0028   35.6215   46.0278 H   0  0  0  0  0  0  0  0  0  0  0  0
   46.8347   32.4790   45.9395 H   0  0  0  0  0  0  0  0  0  0  0  0
   44.6450   36.7312   42.4881 H   0  0  0  0  0  0  0  0  0  0  0  0
   43.7044   37.0820   43.9629 H   0  0  0  0  0  0  0  0  0  0  0  0
   48.8958   34.9186   39.9971 H   0  0  0  0  0  0  0  0  0  0  0  0
   49.3653   34.9456   37.5707 H   0  0  0  0  0  0  0  0  0  0  0  0
   47.8053   33.8462   35.9986 H   0  0  0  0  0  0  0  0  0  0  0  0
   45.7787   32.7253   36.8895 H   0  0  0  0  0  0  0  0  0  0  0  0
   45.2129   31.7680   40.7236 H   0  0  0  0  0  0  0  0  0  0  0  0
  1  6  1  0
  2  1  1  0
  3  2  1  0
  3  1  1  0
  4  9  2  0
  5  4  1  0
  6  5  2  0
  6  7  1  0
  7  8  2  0
  8  9  1  0
 10  5  1  0
 11 17  1  0
 11 12  2  0
 12  3  1  0
 13 12  1  0
 14 13  2  0
 15 16  2  0
 15 14  1  0
 16 11  1  0
 17 19  2  0
 18 17  2  0
  1 20  1  6
  2 21  1  0
  2 22  1  0
  3 23  1  1
  4 24  1  0
  8 25  1  0
 10 26  1  0
 10 27  1  0
 13 28  1  0
 14 29  1  0
 15 30  1  0
 16 31  1  0
 17 32  1  0
M  ISO  8  20  13  21  13  22  13  23  13  24  14  25  14  28  14  29  14
M  ISO  3  30  14  31  14  32  11
M  END
>  <minimizedAffinity>  (1) 
-5.43859816

>  <minimizedRMSD>  (1) 
0.931034505

$$$$
