
     RDKit          3D

 26 28  0  0  1  0  0  0  0  0999 V2000
   46.5080   35.0080   41.9280 C   0  0  1  0  0  0  0  0  0  0  0  0
   48.0350   35.2810   41.8960 C   0  0  0  0  0  0  0  0  0  0  0  0
   47.3230   34.0160   41.3270 C   0  0  2  0  0  0  0  0  0  0  0  0
   44.6730   35.3950   45.1660 C   0  0  0  0  0  0  0  0  0  0  0  0
   45.1120   35.6840   43.8480 C   0  0  0  0  0  0  0  0  0  0  0  0
   46.0470   34.8070   43.3610 C   0  0  0  0  0  0  0  0  0  0  0  0
   46.5190   33.7370   44.0970 N   0  0  0  0  0  0  0  0  0  0  0  0
   46.0660   33.5140   45.3390 C   0  0  0  0  0  0  0  0  0  0  0  0
   45.1420   34.3370   45.8840 N   0  0  0  0  0  0  0  0  0  0  0  0
   44.6330   36.7960   43.1180 N   0  0  0  0  0  0  0  0  0  0  0  0
   47.3110   33.9290   39.8220 C   0  0  0  0  0  0  0  0  0  0  0  0
   46.3630   33.3790   38.9770 C   0  0  0  0  0  0  0  0  0  0  0  0
   46.8180   33.5530   37.7130 N   0  0  0  0  0  0  0  0  0  0  0  0
   48.0230   34.1940   37.7340 C   0  0  0  0  0  0  0  0  0  0  0  0
   48.2940   34.4080   39.0380 N   0  0  0  0  0  0  0  0  0  0  0  0
   45.5885   35.4886   41.5626 H   0  0  0  0  0  0  0  0  0  0  0  0
   48.4594   36.0413   41.2238 H   0  0  0  0  0  0  0  0  0  0  0  0
   48.8333   35.5051   42.6189 H   0  0  0  0  0  0  0  0  0  0  0  0
   47.4172   32.9312   41.4833 H   0  0  0  0  0  0  0  0  0  0  0  0
   43.9221   36.0533   45.6273 H   0  0  0  0  0  0  0  0  0  0  0  0
   46.4472   32.6589   45.9164 H   0  0  0  0  0  0  0  0  0  0  0  0
   44.9765   36.9718   42.1630 H   0  0  0  0  0  0  0  0  0  0  0  0
   43.9405   37.4303   43.5411 H   0  0  0  0  0  0  0  0  0  0  0  0
   45.4215   32.8940   39.2744 H   0  0  0  0  0  0  0  0  0  0  0  0
   46.3268   33.2466   36.8611 H   0  0  0  0  0  0  0  0  0  0  0  0
   48.6423   34.4764   36.8699 H   0  0  0  0  0  0  0  0  0  0  0  0
  1  6  1  0
  2  1  1  0
  3  2  1  0
  3  1  1  0
  4  9  2  0
  5  4  1  0
  6  5  2  0
  6  7  1  0
  7  8  2  0
  8  9  1  0
 10  5  1  0
 11  3  1  0
 12 11  2  0
 13 14  1  0
 13 12  1  0
 14 15  2  0
 15 11  1  0
  1 16  1  6
  2 17  1  0
  2 18  1  0
  3 19  1  1
  4 20  1  0
  8 21  1  0
 10 22  1  0
 10 23  1  0
 12 24  1  0
 13 25  1  0
 14 26  1  0
M  ISO  8  16  13  17  13  18  13  19  13  20  14  21  14  24  14  25   9
M  ISO  1  26  14
M  END
>  <minimizedAffinity>  (1) 
-5.06723547

>  <minimizedRMSD>  (1) 
0.301865697

$$$$
