
     RDKit          3D

 31 33  0  0  1  0  0  0  0  0999 V2000
   45.2730   35.1010   42.6630 C   0  0  1  0  0  0  0  0  0  0  0  0
   46.0640   34.6850   41.3920 C   0  0  0  0  0  0  0  0  0  0  0  0
   44.5440   34.4220   41.6530 C   0  0  2  0  0  0  0  0  0  0  0  0
   45.6490   33.6670   46.1110 C   0  0  0  0  0  0  0  0  0  0  0  0
   45.1680   34.5200   45.0620 C   0  0  0  0  0  0  0  0  0  0  0  0
   45.7700   34.2940   43.8520 C   0  0  0  0  0  0  0  0  0  0  0  0
   46.7580   33.3240   43.6760 N   0  0  0  0  0  0  0  0  0  0  0  0
   47.1540   32.5680   44.7040 C   0  0  0  0  0  0  0  0  0  0  0  0
   46.5980   32.7360   45.9350 N   0  0  0  0  0  0  0  0  0  0  0  0
   44.1820   35.5160   45.2620 N   0  0  0  0  0  0  0  0  0  0  0  0
   43.7250   35.0070   40.6440 N   0  0  0  0  0  0  0  0  0  0  0  0
   43.3520   33.9810   39.6920 C   0  0  0  0  0  0  0  0  0  0  0  0
   41.9640   33.5220   40.0720 C   0  0  0  0  0  0  0  0  0  0  0  0
   41.6810   34.2110   41.3830 C   0  0  0  0  0  0  0  0  0  0  0  0
   42.4680   35.5000   41.1860 C   0  0  0  0  0  0  0  0  0  0  0  0
   45.0391   36.0285   43.2062 H   0  0  0  0  0  0  0  0  0  0  0  0
   46.7939   33.8627   41.4240 H   0  0  0  0  0  0  0  0  0  0  0  0
   46.6819   35.1750   40.6252 H   0  0  0  0  0  0  0  0  0  0  0  0
   43.8309   33.5942   41.7805 H   0  0  0  0  0  0  0  0  0  0  0  0
   45.2152   33.7833   47.1151 H   0  0  0  0  0  0  0  0  0  0  0  0
   47.9332   31.8060   44.5548 H   0  0  0  0  0  0  0  0  0  0  0  0
   43.8732   36.1008   44.4724 H   0  0  0  0  0  0  0  0  0  0  0  0
   43.7735   35.6558   46.1971 H   0  0  0  0  0  0  0  0  0  0  0  0
   43.3494   34.3929   38.6720 H   0  0  0  0  0  0  0  0  0  0  0  0
   44.0654   33.1439   39.7118 H   0  0  0  0  0  0  0  0  0  0  0  0
   41.2323   33.8246   39.3084 H   0  0  0  0  0  0  0  0  0  0  0  0
   41.8942   32.4272   40.1526 H   0  0  0  0  0  0  0  0  0  0  0  0
   40.6068   34.4061   41.5171 H   0  0  0  0  0  0  0  0  0  0  0  0
   41.9585   33.6333   42.2770 H   0  0  0  0  0  0  0  0  0  0  0  0
   42.6225   36.0238   42.1408 H   0  0  0  0  0  0  0  0  0  0  0  0
   41.9635   36.2333   40.5397 H   0  0  0  0  0  0  0  0  0  0  0  0
  1  6  1  0
  2  3  1  0
  2  1  1  0
  3  1  1  0
  5 10  1  0
  5  4  2  0
  6  5  1  0
  7  6  2  0
  7  8  1  0
  8  9  2  0
  9  4  1  0
 11 12  1  0
 11 15  1  0
 11  3  1  0
 12 13  1  0
 13 14  1  0
 15 14  1  0
  1 16  1  1
  2 17  1  0
  2 18  1  0
  3 19  1  1
  4 20  1  0
  8 21  1  0
 10 22  1  0
 10 23  1  0
 12 24  1  0
 12 25  1  0
 13 26  1  0
 13 27  1  0
 14 28  1  0
 14 29  1  0
 15 30  1  0
 15 31  1  0
M  ISO  8  16  13  17  13  18  13  19  13  20  14  21  14  24  13  25  13
M  ISO  6  26  13  27  13  28  13  29  13  30  13  31  13
M  END
>  <minimizedAffinity>  (1) 
-4.53192043

>  <minimizedRMSD>  (1) 
3.85659528

$$$$
