
     RDKit          3D

 46 49  0  0  1  0  0  0  0  0999 V2000
   48.5400   33.0180   41.4680 C   0  0  0  0  0  0  0  0  0  0  0  0
   48.0740   34.2480   41.8500 C   0  0  0  0  0  0  0  0  0  0  0  0
   48.9350   35.1350   42.4340 C   0  0  0  0  0  0  0  0  0  0  0  0
   50.2650   34.7830   42.6330 C   0  0  0  0  0  0  0  0  0  0  0  0
   50.7000   33.5410   42.2390 C   0  0  0  0  0  0  0  0  0  0  0  0
   49.8240   32.6200   41.6370 C   0  0  0  0  0  0  0  0  0  0  0  0
   46.6550   34.5420   41.6040 C   0  0  0  0  0  0  0  0  0  0  0  0
   45.9450   34.8390   42.9110 C   0  0  0  0  0  0  0  0  0  0  0  0
   45.9760   33.8670   43.9060 C   0  0  0  0  0  0  0  0  0  0  0  0
   45.3250   34.1630   45.0850 C   0  0  0  0  0  0  0  0  0  0  0  0
   44.7090   35.3550   45.2050 N   0  0  0  0  0  0  0  0  0  0  0  0
   44.6970   36.2870   44.2130 C   0  0  0  0  0  0  0  0  0  0  0  0
   45.3170   36.0180   43.0740 N   0  0  0  0  0  0  0  0  0  0  0  0
   47.7340   32.0410   40.8620 O   0  0  0  0  0  0  0  0  0  0  0  0
   50.3750   31.3900   41.2770 O   0  0  0  0  0  0  0  0  0  0  0  0
   50.8720   31.3380   39.9770 C   0  0  0  0  0  0  0  0  0  0  0  0
   52.2370   31.4390   39.7950 C   0  0  0  0  0  0  0  0  0  0  0  0
   52.8170   31.3960   38.5280 C   0  0  0  0  0  0  0  0  0  0  0  0
   52.0230   31.2510   37.4520 N   0  0  0  0  0  0  0  0  0  0  0  0
   50.6910   31.1530   37.6400 C   0  0  0  0  0  0  0  0  0  0  0  0
   50.1320   31.1950   38.8560 N   0  0  0  0  0  0  0  0  0  0  0  0
   48.8330   32.1500   36.3310 C   0  0  2  0  0  0  0  0  0  0  0  0
   49.7920   30.9930   36.4660 C   0  0  1  0  0  0  0  0  0  0  0  0
   50.5170   31.0580   35.2900 O   0  0  0  0  0  0  0  0  0  0  0  0
   49.6990   31.4870   34.2750 C   0  0  0  0  0  0  0  0  0  0  0  0
   48.3930   31.9380   34.8820 C   0  0  2  0  0  0  0  0  0  0  0  0
   49.5180   33.3420   36.3920 O   0  0  0  0  0  0  0  0  0  0  0  0
   47.9040   33.1030   34.3060 O   0  0  0  0  0  0  0  0  0  0  0  0
   48.5755   36.1266   42.7462 H   0  0  0  0  0  0  0  0  0  0  0  0
   50.9628   35.4925   43.1017 H   0  0  0  0  0  0  0  0  0  0  0  0
   51.7522   33.2618   42.3971 H   0  0  0  0  0  0  0  0  0  0  0  0
   46.5751   35.4160   40.9408 H   0  0  0  0  0  0  0  0  0  0  0  0
   46.1847   33.6668   41.1320 H   0  0  0  0  0  0  0  0  0  0  0  0
   46.4950   32.9083   43.7592 H   0  0  0  0  0  0  0  0  0  0  0  0
   45.3090   33.4387   45.9127 H   0  0  0  0  0  0  0  0  0  0  0  0
   44.1808   37.2479   44.3550 H   0  0  0  0  0  0  0  0  0  0  0  0
   46.7767   32.2258   40.6904 H   0  0  0  0  0  0  0  0  0  0  0  0
   52.8858   31.5568   40.6755 H   0  0  0  0  0  0  0  0  0  0  0  0
   53.9075   31.4794   38.4100 H   0  0  0  0  0  0  0  0  0  0  0  0
   48.0409   32.1868   37.0934 H   0  0  0  0  0  0  0  0  0  0  0  0
   49.2783   30.0330   36.6227 H   0  0  0  0  0  0  0  0  0  0  0  0
   49.5170   30.6628   33.5696 H   0  0  0  0  0  0  0  0  0  0  0  0
   50.1721   32.3173   33.7303 H   0  0  0  0  0  0  0  0  0  0  0  0
   47.5602   31.2323   34.7462 H   0  0  0  0  0  0  0  0  0  0  0  0
   49.6616   33.5920   37.3391 H   0  0  0  0  0  0  0  0  0  0  0  0
   47.6379   33.7369   35.0184 H   0  0  0  0  0  0  0  0  0  0  0  0
  1  6  2  0
  1  2  1  0
  2  3  2  0
  3  4  1  0
  5  4  2  0
  6  5  1  0
  7  2  1  0
  7  8  1  0
  8 13  1  0
  8  9  2  0
  9 10  1  0
 10 11  2  0
 12 11  1  0
 13 12  2  0
 14  1  1  0
 15  6  1  0
 16 15  1  0
 17 16  2  0
 18 17  1  0
 19 20  1  0
 19 18  2  0
 20 21  2  0
 21 16  1  0
 22 27  1  0
 22 23  1  0
 23 20  1  0
 24 23  1  0
 25 26  1  0
 25 24  1  0
 26 28  1  0
 26 22  1  0
  3 29  1  0
  4 30  1  0
  5 31  1  0
  7 32  1  0
  7 33  1  0
  9 34  1  0
 10 35  1  0
 12 36  1  0
 14 37  1  0
 17 38  1  0
 18 39  1  0
 22 40  1  1
 23 41  1  1
 25 42  1  0
 25 43  1  0
 26 44  1  1
 27 45  1  0
 28 46  1  0
M  ISO  8  29  14  30  14  31  14  32   8  33   8  34  14  35  14  36  14
M  ISO  8  37   3  38  14  39  14  40  13  41  13  42  13  43  13  44  13
M  ISO  2  45   3  46   3
M  END
>  <minimizedAffinity>  (1) 
-6.42025328

>  <minimizedRMSD>  (1) 
1.08676469

$$$$
