
     RDKit          3D

 23 24  0  0  1  0  0  0  0  0999 V2000
   46.5660   35.0260   41.9260 C   0  0  1  0  0  0  0  0  0  0  0  0
   48.0950   35.3150   41.9510 C   0  0  0  0  0  0  0  0  0  0  0  0
   47.3990   34.0440   41.3660 C   0  0  2  0  0  0  0  0  0  0  0  0
   44.6270   35.4570   45.1140 C   0  0  0  0  0  0  0  0  0  0  0  0
   45.1050   35.7240   43.7990 C   0  0  0  0  0  0  0  0  0  0  0  0
   46.0430   34.8630   43.3340 C   0  0  0  0  0  0  0  0  0  0  0  0
   46.5080   33.7980   44.0840 N   0  0  0  0  0  0  0  0  0  0  0  0
   46.0300   33.5770   45.3310 C   0  0  0  0  0  0  0  0  0  0  0  0
   45.0820   34.4150   45.8450 N   0  0  0  0  0  0  0  0  0  0  0  0
   44.6550   36.8210   43.0490 N   0  0  0  0  0  0  0  0  0  0  0  0
   47.4710   33.8220   39.8740 C   0  0  0  0  0  0  0  0  0  0  0  0
   45.8640   33.1010   39.4040 S   0  0  0  0  0  0  0  0  0  0  0  0
   45.6541   35.4870   41.5187 H   0  0  0  0  0  0  0  0  0  0  0  0
   48.5397   36.0731   41.2896 H   0  0  0  0  0  0  0  0  0  0  0  0
   48.8670   35.5487   42.6990 H   0  0  0  0  0  0  0  0  0  0  0  0
   47.4785   32.9602   41.5365 H   0  0  0  0  0  0  0  0  0  0  0  0
   43.8637   36.1195   45.5482 H   0  0  0  0  0  0  0  0  0  0  0  0
   46.4020   32.7295   45.9254 H   0  0  0  0  0  0  0  0  0  0  0  0
   45.0234   36.9825   42.1008 H   0  0  0  0  0  0  0  0  0  0  0  0
   43.9562   37.4648   43.4466 H   0  0  0  0  0  0  0  0  0  0  0  0
   47.6305   34.7768   39.3515 H   0  0  0  0  0  0  0  0  0  0  0  0
   48.3074   33.1614   39.6019 H   0  0  0  0  0  0  0  0  0  0  0  0
   45.1576   32.7841   40.5342 H   0  0  0  0  0  0  0  0  0  0  0  0
  1  2  1  0
  1  6  1  0
  3  1  1  0
  3  2  1  0
  4  9  2  0
  5  4  1  0
  6  5  2  0
  6  7  1  0
  7  8  2  0
  8  9  1  0
 10  5  1  0
 11  3  1  0
 12 11  1  0
  1 13  1  6
  2 14  1  0
  2 15  1  0
  3 16  1  1
  4 17  1  0
  8 18  1  0
 10 19  1  0
 10 20  1  0
 11 21  1  0
 11 22  1  0
 12 23  1  0
M  ISO  8  13  13  14  13  15  13  16  13  17  14  18  14  21   8  22   8
M  ISO  1  23  11
M  END
>  <minimizedAffinity>  (1) 
-4.16733074

>  <minimizedRMSD>  (1) 
0.164023817

$$$$
