
     RDKit          3D

 23 24  0  0  1  0  0  0  0  0999 V2000
   46.5750   35.0250   41.9390 C   0  0  1  0  0  0  0  0  0  0  0  0
   48.0940   35.3500   41.9610 C   0  0  0  0  0  0  0  0  0  0  0  0
   47.4320   34.0590   41.3870 C   0  0  2  0  0  0  0  0  0  0  0  0
   44.6240   35.4440   45.1100 C   0  0  0  0  0  0  0  0  0  0  0  0
   45.1050   35.7210   43.8030 C   0  0  0  0  0  0  0  0  0  0  0  0
   46.0520   34.8700   43.3370 C   0  0  0  0  0  0  0  0  0  0  0  0
   46.5180   33.8040   44.0940 N   0  0  0  0  0  0  0  0  0  0  0  0
   46.0280   33.5870   45.3350 C   0  0  0  0  0  0  0  0  0  0  0  0
   45.0790   34.4080   45.8410 N   0  0  0  0  0  0  0  0  0  0  0  0
   44.6640   36.8240   43.0550 N   0  0  0  0  0  0  0  0  0  0  0  0
   47.5030   33.8170   39.8970 C   0  0  0  0  0  0  0  0  0  0  0  0
   48.4180   32.8030   39.6040 O   0  0  0  0  0  0  0  0  0  0  0  0
   45.6517   35.4585   41.5273 H   0  0  0  0  0  0  0  0  0  0  0  0
   48.5200   36.1134   41.2934 H   0  0  0  0  0  0  0  0  0  0  0  0
   48.8597   35.6085   42.7072 H   0  0  0  0  0  0  0  0  0  0  0  0
   47.5427   32.9794   41.5663 H   0  0  0  0  0  0  0  0  0  0  0  0
   43.8523   36.0988   45.5410 H   0  0  0  0  0  0  0  0  0  0  0  0
   46.4009   32.7428   45.9336 H   0  0  0  0  0  0  0  0  0  0  0  0
   45.0390   36.9884   42.1099 H   0  0  0  0  0  0  0  0  0  0  0  0
   43.9654   37.4689   43.4513 H   0  0  0  0  0  0  0  0  0  0  0  0
   46.5083   33.5223   39.5313 H   0  0  0  0  0  0  0  0  0  0  0  0
   47.8322   34.7435   39.4038 H   0  0  0  0  0  0  0  0  0  0  0  0
   48.7653   32.4181   40.4474 H   0  0  0  0  0  0  0  0  0  0  0  0
  1  2  1  0
  1  6  1  0
  3  1  1  0
  3  2  1  0
  4  9  2  0
  5  4  1  0
  6  5  2  0
  6  7  1  0
  7  8  2  0
  8  9  1  0
 10  5  1  0
 11  3  1  0
 12 11  1  0
  1 13  1  6
  2 14  1  0
  2 15  1  0
  3 16  1  1
  4 17  1  0
  8 18  1  0
 10 19  1  0
 10 20  1  0
 11 21  1  0
 11 22  1  0
 12 23  1  0
M  ISO  8  13  13  14  13  15  13  16  13  17  14  18  14  21   8  22   8
M  ISO  1  23   3
M  END
>  <minimizedAffinity>  (1) 
-4.16215134

>  <minimizedRMSD>  (1) 
0.113459691

$$$$
