
     RDKit          3D

 34 35  0  0  1  0  0  0  0  0999 V2000
   44.6360   35.2550   45.1370 O   0  0  0  0  0  0  0  0  0  0  0  0
   45.4490   34.2640   44.3760 P   0  0  2  0  0  0  0  0  0  0  0  0
   44.5180   33.0570   43.6770 O   0  0  0  0  0  0  0  0  0  0  0  0
   46.5090   33.4690   45.4390 O   0  0  0  0  0  0  0  0  0  0  0  0
   46.1910   32.1440   45.4430 C   0  0  0  0  0  0  0  0  0  0  0  0
   45.7490   32.0200   49.1330 C   0  0  0  0  0  0  0  0  0  0  0  0
   46.0430   32.5110   47.8570 C   0  0  0  0  0  0  0  0  0  0  0  0
   45.8870   31.6470   46.7880 C   0  0  0  0  0  0  0  0  0  0  0  0
   45.4560   30.3680   47.0340 N   0  0  0  0  0  0  0  0  0  0  0  0
   45.1820   29.9340   48.2840 C   0  0  0  0  0  0  0  0  0  0  0  0
   45.3300   30.7560   49.3130 N   0  0  0  0  0  0  0  0  0  0  0  0
   46.3860   35.0700   43.2330 O   0  0  0  0  0  0  0  0  0  0  0  0
   46.9150   34.1390   42.3390 C   0  0  1  0  0  0  0  0  0  0  0  0
   46.4390   34.3310   40.9250 C   0  0  0  0  0  0  0  0  0  0  0  0
   47.4250   33.4740   40.1610 C   0  0  0  0  0  0  0  0  0  0  0  0
   48.7020   33.4560   40.9860 C   0  0  0  0  0  0  0  0  0  0  0  0
   48.4170   34.3950   42.1550 C   0  0  1  0  0  0  0  0  0  0  0  0
   48.6820   35.7500   41.7140 N   0  0  0  0  0  0  0  0  0  0  0  0
   44.0972   32.5114   44.3879 H   0  0  0  0  0  0  0  0  0  0  0  0
   45.3105   31.9900   44.8020 H   0  0  0  0  0  0  0  0  0  0  0  0
   47.0635   31.5883   45.0691 H   0  0  0  0  0  0  0  0  0  0  0  0
   45.8628   32.6805   50.0052 H   0  0  0  0  0  0  0  0  0  0  0  0
   46.3856   33.5458   47.7089 H   0  0  0  0  0  0  0  0  0  0  0  0
   44.8374   28.9022   48.4469 H   0  0  0  0  0  0  0  0  0  0  0  0
   46.6285   33.1653   42.7631 H   0  0  0  0  0  0  0  0  0  0  0  0
   45.4076   33.9713   40.7950 H   0  0  0  0  0  0  0  0  0  0  0  0
   46.4078   35.3811   40.5990 H   0  0  0  0  0  0  0  0  0  0  0  0
   47.0322   32.4531   40.0444 H   0  0  0  0  0  0  0  0  0  0  0  0
   47.6057   33.8742   39.1525 H   0  0  0  0  0  0  0  0  0  0  0  0
   48.9167   32.4395   41.3475 H   0  0  0  0  0  0  0  0  0  0  0  0
   49.5804   33.7697   40.4029 H   0  0  0  0  0  0  0  0  0  0  0  0
   49.0052   34.2474   43.0727 H   0  0  0  0  0  0  0  0  0  0  0  0
   48.8015   36.3609   42.5346 H   0  0  0  0  0  0  0  0  0  0  0  0
   49.5418   35.7646   41.1470 H   0  0  0  0  0  0  0  0  0  0  0  0
  2  1  2  0
  2  4  1  0
  3  2  1  0
  4  5  1  0
  5  8  1  0
  6 11  2  0
  7  6  1  0
  8  9  1  0
  8  7  2  0
  9 10  2  0
 10 11  1  0
 12  2  1  0
 13 12  1  0
 14 13  1  0
 15 14  1  0
 15 16  1  0
 16 17  1  0
 17 13  1  0
 18 17  1  0
  3 19  1  0
  5 20  1  0
  5 21  1  0
  6 22  1  0
  7 23  1  0
 10 24  1  0
 13 25  1  1
 14 26  1  0
 14 27  1  0
 15 28  1  0
 15 29  1  0
 16 30  1  0
 16 31  1  0
 17 32  1  1
 18 33  1  0
 18 34  1  0
M  ISO  8  19   3  20   8  21   8  22  14  23  14  24  14  25  13  26  13
M  ISO  8  27  13  28  13  29  13  30  13  31  13  32  13  33   5  34   5
M  END
>  <minimizedAffinity>  (1) 
-4.82074976

>  <minimizedRMSD>  (1) 
0.380038559

$$$$
