
     RDKit          3D

 36 37  0  0  1  0  0  0  0  0999 V2000
   46.1680   35.1360   43.3540 O   0  0  0  0  0  0  0  0  0  0  0  0
   46.8280   34.4580   42.3260 C   0  0  1  0  0  0  0  0  0  0  0  0
   46.0600   34.4470   41.0320 C   0  0  0  0  0  0  0  0  0  0  0  0
   47.1110   33.9870   40.0540 C   0  0  0  0  0  0  0  0  0  0  0  0
   48.4260   34.4800   40.6200 C   0  0  0  0  0  0  0  0  0  0  0  0
   48.0660   35.2460   41.8910 C   0  0  2  0  0  0  0  0  0  0  0  0
   50.0600   33.8930   42.5830 C   0  0  0  0  0  0  0  0  0  0  0  0
   49.9520   33.0910   41.6310 O   0  0  0  0  0  0  0  0  0  0  0  0
   49.1700   35.0020   42.8020 N   0  0  0  0  0  0  0  0  0  0  0  0
   44.9290   34.7290   45.5910 O   0  0  0  0  0  0  0  0  0  0  0  0
   45.5930   34.0090   44.4650 P   0  0  1  0  0  0  0  0  0  0  0  0
   44.5990   32.8700   43.7410 O   0  0  0  0  0  0  0  0  0  0  0  0
   46.9310   33.1490   45.0580 O   0  0  0  0  0  0  0  0  0  0  0  0
   46.5620   31.8450   45.2190 C   0  0  0  0  0  0  0  0  0  0  0  0
   46.3960   32.0060   48.9280 C   0  0  0  0  0  0  0  0  0  0  0  0
   46.7380   32.3270   47.6070 C   0  0  0  0  0  0  0  0  0  0  0  0
   46.2150   31.5260   46.6070 C   0  0  0  0  0  0  0  0  0  0  0  0
   45.3970   30.4690   46.9500 N   0  0  0  0  0  0  0  0  0  0  0  0
   45.0970   30.2010   48.2410 C   0  0  0  0  0  0  0  0  0  0  0  0
   45.6010   30.9740   49.2130 N   0  0  0  0  0  0  0  0  0  0  0  0
   47.0039   33.4538   42.7390 H   0  0  0  0  0  0  0  0  0  0  0  0
   45.2157   33.7431   41.0732 H   0  0  0  0  0  0  0  0  0  0  0  0
   45.6057   35.4153   40.7752 H   0  0  0  0  0  0  0  0  0  0  0  0
   46.9309   34.4242   39.0608 H   0  0  0  0  0  0  0  0  0  0  0  0
   47.1030   32.8944   39.9269 H   0  0  0  0  0  0  0  0  0  0  0  0
   49.0841   33.6311   40.8570 H   0  0  0  0  0  0  0  0  0  0  0  0
   48.9652   35.1150   39.9016 H   0  0  0  0  0  0  0  0  0  0  0  0
   47.8946   36.3301   41.8184 H   0  0  0  0  0  0  0  0  0  0  0  0
   50.8842   33.7423   43.2957 H   0  0  0  0  0  0  0  0  0  0  0  0
   49.3166   35.6256   43.6086 H   0  0  0  0  0  0  0  0  0  0  0  0
   44.1382   32.3420   44.4403 H   0  0  0  0  0  0  0  0  0  0  0  0
   45.6878   31.6448   44.5821 H   0  0  0  0  0  0  0  0  0  0  0  0
   47.4206   31.2179   44.9371 H   0  0  0  0  0  0  0  0  0  0  0  0
   46.7931   32.6204   49.7495 H   0  0  0  0  0  0  0  0  0  0  0  0
   47.3940   33.1790   47.3752 H   0  0  0  0  0  0  0  0  0  0  0  0
   44.4428   29.3531   48.4921 H   0  0  0  0  0  0  0  0  0  0  0  0
  1 11  1  0
  2  1  1  0
  3  2  1  0
  4  5  1  0
  4  3  1  0
  5  6  1  0
  6  2  1  0
  6  9  1  0
  7  9  1  0
  8  7  2  0
 11 13  1  0
 11 10  2  0
 12 11  1  0
 13 14  1  0
 14 17  1  0
 15 20  2  0
 16 15  1  0
 17 18  1  0
 17 16  2  0
 18 19  2  0
 19 20  1  0
  2 21  1  1
  3 22  1  0
  3 23  1  0
  4 24  1  0
  4 25  1  0
  5 26  1  0
  5 27  1  0
  6 28  1  6
  7 29  1  0
  9 30  1  0
 12 31  1  0
 14 32  1  0
 14 33  1  0
 15 34  1  0
 16 35  1  0
 19 36  1  0
M  ISO  8  21  13  22  13  23  13  24  13  25  13  26  13  27  13  28  13
M  ISO  7  29   6  31   3  32   8  33   8  34  14  35  14  36  14
M  END
>  <minimizedAffinity>  (1) 
-5.29377985

>  <minimizedRMSD>  (1) 
0.891779959

$$$$
