
     RDKit          3D

 34 36  0  0  0  0  0  0  0  0999 V2000
   48.4800   33.0700   41.5140 C   0  0  0  0  0  0  0  0  0  0  0  0
   48.0130   34.2880   41.9240 C   0  0  0  0  0  0  0  0  0  0  0  0
   48.8780   35.1770   42.4970 C   0  0  0  0  0  0  0  0  0  0  0  0
   50.2180   34.8360   42.6550 C   0  0  0  0  0  0  0  0  0  0  0  0
   50.6550   33.5970   42.2290 C   0  0  0  0  0  0  0  0  0  0  0  0
   49.7710   32.6760   41.6390 C   0  0  0  0  0  0  0  0  0  0  0  0
   46.5790   34.5670   41.7200 C   0  0  0  0  0  0  0  0  0  0  0  0
   45.9010   34.8210   43.0510 C   0  0  0  0  0  0  0  0  0  0  0  0
   45.9950   33.8280   44.0280 C   0  0  0  0  0  0  0  0  0  0  0  0
   45.3700   34.0880   45.2330 C   0  0  0  0  0  0  0  0  0  0  0  0
   44.7210   35.2560   45.3920 N   0  0  0  0  0  0  0  0  0  0  0  0
   44.6490   36.2020   44.4230 C   0  0  0  0  0  0  0  0  0  0  0  0
   45.2420   35.9840   43.2450 N   0  0  0  0  0  0  0  0  0  0  0  0
   47.6690   32.0910   40.9160 O   0  0  0  0  0  0  0  0  0  0  0  0
   50.3310   31.4650   41.2530 O   0  0  0  0  0  0  0  0  0  0  0  0
   50.8290   31.4490   39.9460 C   0  0  0  0  0  0  0  0  0  0  0  0
   52.1990   31.4080   39.7820 C   0  0  0  0  0  0  0  0  0  0  0  0
   52.7860   31.3890   38.5090 C   0  0  0  0  0  0  0  0  0  0  0  0
   52.0010   31.4110   37.4330 N   0  0  0  0  0  0  0  0  0  0  0  0
   50.6680   31.4510   37.6060 C   0  0  0  0  0  0  0  0  0  0  0  0
   50.0910   31.4700   38.8110 N   0  0  0  0  0  0  0  0  0  0  0  0
   49.6380   31.4810   36.1410 S   0  0  0  0  0  0  0  0  0  0  0  0
   48.5161   36.1600   42.8327 H   0  0  0  0  0  0  0  0  0  0  0  0
   50.9217   35.5458   43.1143 H   0  0  0  0  0  0  0  0  0  0  0  0
   51.7137   33.3257   42.3535 H   0  0  0  0  0  0  0  0  0  0  0  0
   46.4690   35.4554   41.0808 H   0  0  0  0  0  0  0  0  0  0  0  0
   46.1090   33.6971   41.2380 H   0  0  0  0  0  0  0  0  0  0  0  0
   46.5378   32.8883   43.8482 H   0  0  0  0  0  0  0  0  0  0  0  0
   45.4026   33.3515   46.0494 H   0  0  0  0  0  0  0  0  0  0  0  0
   44.1067   37.1416   44.6050 H   0  0  0  0  0  0  0  0  0  0  0  0
   46.7053   32.2666   40.7725 H   0  0  0  0  0  0  0  0  0  0  0  0
   52.8457   31.3898   40.6716 H   0  0  0  0  0  0  0  0  0  0  0  0
   53.8801   31.3564   38.4002 H   0  0  0  0  0  0  0  0  0  0  0  0
   48.3194   31.5194   36.5106 H   0  0  0  0  0  0  0  0  0  0  0  0
  1  6  2  0
  1  2  1  0
  2  3  2  0
  3  4  1  0
  5  4  2  0
  6  5  1  0
  7  2  1  0
  7  8  1  0
  8 13  1  0
  8  9  2  0
  9 10  1  0
 10 11  2  0
 12 11  1  0
 13 12  2  0
 14  1  1  0
 15  6  1  0
 16 15  1  0
 17 16  2  0
 18 17  1  0
 19 20  1  0
 19 18  2  0
 20 21  2  0
 21 16  1  0
 22 20  1  0
  3 23  1  0
  4 24  1  0
  5 25  1  0
  7 26  1  0
  7 27  1  0
  9 28  1  0
 10 29  1  0
 12 30  1  0
 14 31  1  0
 17 32  1  0
 18 33  1  0
 22 34  1  0
M  ISO  8  23  14  24  14  25  14  26   8  27   8  28  14  29  14  30  14
M  ISO  4  31   3  32  14  33  14  34  11
M  END
>  <minimizedAffinity>  (1) 
-5.45740032

>  <minimizedRMSD>  (1) 
0.475596607

$$$$
