
     RDKit          3D

 23 25  0  0  0  0  0  0  0  0999 V2000
   44.8330   35.0750   45.3610 C   0  0  0  0  0  0  0  0  0  0  0  0
   44.6060   36.1480   44.4690 C   0  0  0  0  0  0  0  0  0  0  0  0
   45.2930   36.1350   43.2360 C   0  0  0  0  0  0  0  0  0  0  0  0
   46.1250   35.0960   42.9870 N   0  0  0  0  0  0  0  0  0  0  0  0
   46.3170   34.0850   43.8670 C   0  0  0  0  0  0  0  0  0  0  0  0
   45.6690   34.0880   45.0420 N   0  0  0  0  0  0  0  0  0  0  0  0
   44.1390   35.0810   46.6140 N   0  0  0  0  0  0  0  0  0  0  0  0
   47.1970   33.0030   43.5810 N   0  0  0  0  0  0  0  0  0  0  0  0
   46.8580   31.7190   43.7950 C   0  0  0  0  0  0  0  0  0  0  0  0
   47.9350   30.9910   43.4100 N   0  0  0  0  0  0  0  0  0  0  0  0
   48.9080   31.8350   42.9710 C   0  0  0  0  0  0  0  0  0  0  0  0
   50.1950   31.6000   42.4710 C   0  0  0  0  0  0  0  0  0  0  0  0
   50.9390   32.6600   42.1090 N   0  0  0  0  0  0  0  0  0  0  0  0
   50.4460   33.9030   42.2300 C   0  0  0  0  0  0  0  0  0  0  0  0
   49.2050   34.1630   42.7090 N   0  0  0  0  0  0  0  0  0  0  0  0
   48.4220   33.1210   43.0860 C   0  0  0  0  0  0  0  0  0  0  0  0
   43.9170   36.9657   44.7272 H   0  0  0  0  0  0  0  0  0  0  0  0
   45.1570   36.9424   42.5014 H   0  0  0  0  0  0  0  0  0  0  0  0
   44.2826   34.3137   47.2859 H   0  0  0  0  0  0  0  0  0  0  0  0
   43.4964   35.8526   46.8431 H   0  0  0  0  0  0  0  0  0  0  0  0
   45.9072   31.3396   44.1976 H   0  0  0  0  0  0  0  0  0  0  0  0
   50.5865   30.5763   42.3770 H   0  0  0  0  0  0  0  0  0  0  0  0
   51.0788   34.7499   41.9262 H   0  0  0  0  0  0  0  0  0  0  0  0
  1  7  1  0
  2  1  2  0
  3  2  1  0
  4  3  2  0
  4  5  1  0
  5  6  2  0
  6  1  1  0
  8  9  1  0
  8  5  1  0
 10  9  2  0
 11 16  2  0
 11 10  1  0
 12 11  1  0
 13 14  1  0
 13 12  2  0
 14 15  2  0
 15 16  1  0
 16  8  1  0
  2 17  1  0
  3 18  1  0
  7 19  1  0
  7 20  1  0
  9 21  1  0
 12 22  1  0
 14 23  1  0
M  ISO  5  17  14  18  14  21  14  22  14  23  14
M  END
>  <minimizedAffinity>  (1) 
-5.47833538

>  <minimizedRMSD>  (1) 
5.43856096

$$$$
