
     RDKit          3D

 27 28  0  0  0  0  0  0  0  0999 V2000
   44.9620   34.9160   45.2340 C   0  0  0  0  0  0  0  0  0  0  0  0
   44.3690   35.8990   44.4190 C   0  0  0  0  0  0  0  0  0  0  0  0
   44.9030   36.1460   43.1440 C   0  0  0  0  0  0  0  0  0  0  0  0
   45.9820   35.4020   42.7810 N   0  0  0  0  0  0  0  0  0  0  0  0
   46.5380   34.4640   43.5730 C   0  0  0  0  0  0  0  0  0  0  0  0
   46.0170   34.2390   44.7860 N   0  0  0  0  0  0  0  0  0  0  0  0
   44.4210   34.6670   46.5200 N   0  0  0  0  0  0  0  0  0  0  0  0
   47.6770   33.7360   43.0870 N   0  0  0  0  0  0  0  0  0  0  0  0
   48.8590   34.5350   42.7490 C   0  0  0  0  0  0  0  0  0  0  0  0
   50.0720   33.6950   42.5330 C   0  0  0  0  0  0  0  0  0  0  0  0
   49.6570   32.4340   41.7670 C   0  0  0  0  0  0  0  0  0  0  0  0
   48.8700   31.6180   42.7740 C   0  0  0  0  0  0  0  0  0  0  0  0
   47.5500   32.2890   42.9780 C   0  0  0  0  0  0  0  0  0  0  0  0
   43.4975   36.4669   44.7768 H   0  0  0  0  0  0  0  0  0  0  0  0
   44.4706   36.9028   42.4730 H   0  0  0  0  0  0  0  0  0  0  0  0
   44.8446   33.9508   47.1271 H   0  0  0  0  0  0  0  0  0  0  0  0
   43.6042   35.2022   46.8476 H   0  0  0  0  0  0  0  0  0  0  0  0
   48.6519   35.0994   41.8278 H   0  0  0  0  0  0  0  0  0  0  0  0
   49.0630   35.2059   43.5965 H   0  0  0  0  0  0  0  0  0  0  0  0
   50.8142   34.2578   41.9478 H   0  0  0  0  0  0  0  0  0  0  0  0
   50.5185   33.4201   43.5000 H   0  0  0  0  0  0  0  0  0  0  0  0
   49.0293   32.6938   40.9019 H   0  0  0  0  0  0  0  0  0  0  0  0
   50.5221   31.8838   41.3683 H   0  0  0  0  0  0  0  0  0  0  0  0
   48.7158   30.5987   42.3903 H   0  0  0  0  0  0  0  0  0  0  0  0
   49.4176   31.5524   43.7257 H   0  0  0  0  0  0  0  0  0  0  0  0
   46.8980   32.0544   42.1237 H   0  0  0  0  0  0  0  0  0  0  0  0
   47.1250   31.9162   43.9216 H   0  0  0  0  0  0  0  0  0  0  0  0
  1  7  1  0
  2  1  2  0
  3  2  1  0
  4  3  2  0
  4  5  1  0
  5  6  2  0
  6  1  1  0
  8  5  1  0
  9  8  1  0
 10  9  1  0
 11 10  1  0
 11 12  1  0
 12 13  1  0
 13  8  1  0
  2 14  1  0
  3 15  1  0
  7 16  1  0
  7 17  1  0
  9 18  1  0
  9 19  1  0
 10 20  1  0
 10 21  1  0
 11 22  1  0
 11 23  1  0
 12 24  1  0
 12 25  1  0
 13 26  1  0
 13 27  1  0
M  ISO  8  14  14  15  14  18  13  19  13  20  13  21  13  22  13  23  13
M  ISO  4  24  13  25  13  26  13  27  13
M  END
>  <minimizedAffinity>  (1) 
-4.8293252

>  <minimizedRMSD>  (1) 
5.22992992

$$$$
