
     RDKit          3D

 19 20  0  0  0  0  0  0  0  0999 V2000
   44.9190   35.0290   44.5220 C   0  0  0  0  0  0  0  0  0  0  0  0
   45.8710   34.8870   43.4940 C   0  0  0  0  0  0  0  0  0  0  0  0
   46.9300   33.9650   43.6540 C   0  0  0  0  0  0  0  0  0  0  0  0
   46.9540   33.2560   44.8300 N   0  0  0  0  0  0  0  0  0  0  0  0
   46.0290   33.4230   45.7790 C   0  0  0  0  0  0  0  0  0  0  0  0
   45.0250   34.2890   45.6400 N   0  0  0  0  0  0  0  0  0  0  0  0
   43.8660   35.9580   44.3460 N   0  0  0  0  0  0  0  0  0  0  0  0
   46.1080   32.6350   47.0170 C   0  0  0  0  0  0  0  0  0  0  0  0
   45.2500   32.5410   48.0240 C   0  0  0  0  0  0  0  0  0  0  0  0
   45.5240   31.7330   49.1010 C   0  0  0  0  0  0  0  0  0  0  0  0
   46.7420   31.0420   49.0480 C   0  0  0  0  0  0  0  0  0  0  0  0
   47.4550   31.5950   47.4160 S   0  0  0  0  0  0  0  0  0  0  0  0
   45.7911   35.4876   42.5759 H   0  0  0  0  0  0  0  0  0  0  0  0
   47.6954   33.8226   42.8769 H   0  0  0  0  0  0  0  0  0  0  0  0
   43.8078   36.5125   43.4799 H   0  0  0  0  0  0  0  0  0  0  0  0
   43.1578   36.0796   45.0840 H   0  0  0  0  0  0  0  0  0  0  0  0
   44.3117   33.1144   47.9967 H   0  0  0  0  0  0  0  0  0  0  0  0
   44.8318   31.6348   49.9502 H   0  0  0  0  0  0  0  0  0  0  0  0
   47.1705   30.3469   49.7851 H   0  0  0  0  0  0  0  0  0  0  0  0
  1  6  2  0
  2  3  2  0
  2  1  1  0
  3  4  1  0
  4  5  2  0
  5  8  1  0
  6  5  1  0
  7  1  1  0
  8 12  1  0
  8  9  2  0
  9 10  1  0
 11 10  2  0
 12 11  1  0
  2 13  1  0
  3 14  1  0
  7 15  1  0
  7 16  1  0
  9 17  1  0
 10 18  1  0
 11 19  1  0
M  ISO  5  13  14  14  14  17  14  18  14  19  14
M  END
>  <minimizedAffinity>  (1) 
-4.78986025

>  <minimizedRMSD>  (1) 
1.22667563

$$$$
