
     RDKit          3D

 19 20  0  0  0  0  0  0  0  0999 V2000
   45.7880   33.9450   44.7470 C   0  0  0  0  0  0  0  0  0  0  0  0
   44.8300   34.9540   44.4800 C   0  0  0  0  0  0  0  0  0  0  0  0
   45.0590   35.8330   43.4080 C   0  0  0  0  0  0  0  0  0  0  0  0
   46.2150   35.6450   42.6880 N   0  0  0  0  0  0  0  0  0  0  0  0
   47.0970   34.6810   42.9680 C   0  0  0  0  0  0  0  0  0  0  0  0
   46.8800   33.8480   43.9860 N   0  0  0  0  0  0  0  0  0  0  0  0
   45.5530   33.0520   45.8370 N   0  0  0  0  0  0  0  0  0  0  0  0
   48.3280   34.5510   42.1310 C   0  0  0  0  0  0  0  0  0  0  0  0
   48.9720   35.7410   41.5540 C   0  0  0  0  0  0  0  0  0  0  0  0
   48.1540   34.8330   40.6580 C   0  0  0  0  0  0  0  0  0  0  0  0
   43.9256   35.0473   45.0991 H   0  0  0  0  0  0  0  0  0  0  0  0
   44.3474   36.6333   43.1569 H   0  0  0  0  0  0  0  0  0  0  0  0
   46.2347   32.3102   46.0512 H   0  0  0  0  0  0  0  0  0  0  0  0
   44.7019   33.1500   46.4087 H   0  0  0  0  0  0  0  0  0  0  0  0
   48.7107   33.7244   42.7477 H   0  0  0  0  0  0  0  0  0  0  0  0
   48.5972   36.7438   41.8068 H   0  0  0  0  0  0  0  0  0  0  0  0
   50.0012   36.1286   41.5300 H   0  0  0  0  0  0  0  0  0  0  0  0
   47.1814   35.1677   40.2681 H   0  0  0  0  0  0  0  0  0  0  0  0
   48.3306   34.2805   39.7234 H   0  0  0  0  0  0  0  0  0  0  0  0
  1  7  1  0
  2  1  2  0
  3  2  1  0
  4  5  1  0
  4  3  2  0
  5  6  2  0
  6  1  1  0
  8  5  1  0
  9  8  1  0
 10  9  1  0
 10  8  1  0
  2 11  1  0
  3 12  1  0
  7 13  1  0
  7 14  1  0
  8 15  1  0
  9 16  1  0
  9 17  1  0
 10 18  1  0
 10 19  1  0
M  ISO  7  11  14  12  14  15  13  16  13  17  13  18  13  19  13
M  END
>  <minimizedAffinity>  (1) 
-4.1076479

>  <minimizedRMSD>  (1) 
4.75516558

$$$$
