
     RDKit          3D

 18 18  0  0  0  0  0  0  0  0999 V2000
   44.9250   35.0220   44.4490 C   0  0  0  0  0  0  0  0  0  0  0  0
   45.8310   34.9190   43.3550 C   0  0  0  0  0  0  0  0  0  0  0  0
   46.9300   34.0560   43.4920 C   0  0  0  0  0  0  0  0  0  0  0  0
   47.0560   33.3730   44.6640 N   0  0  0  0  0  0  0  0  0  0  0  0
   46.1890   33.4870   45.6770 C   0  0  0  0  0  0  0  0  0  0  0  0
   45.1270   34.3110   45.5660 N   0  0  0  0  0  0  0  0  0  0  0  0
   43.8010   35.8890   44.3400 N   0  0  0  0  0  0  0  0  0  0  0  0
   46.4850   32.6690   46.8700 C   0  0  0  0  0  0  0  0  0  0  0  0
   45.3190   32.6170   47.8280 C   0  0  0  0  0  0  0  0  0  0  0  0
   45.6748   35.4970   42.4323 H   0  0  0  0  0  0  0  0  0  0  0  0
   47.6637   33.9356   42.6813 H   0  0  0  0  0  0  0  0  0  0  0  0
   43.6518   36.4328   43.4781 H   0  0  0  0  0  0  0  0  0  0  0  0
   43.1371   35.9724   45.1230 H   0  0  0  0  0  0  0  0  0  0  0  0
   46.7245   31.6451   46.5472 H   0  0  0  0  0  0  0  0  0  0  0  0
   47.3338   33.1314   47.3951 H   0  0  0  0  0  0  0  0  0  0  0  0
   45.6932   32.6337   48.8623 H   0  0  0  0  0  0  0  0  0  0  0  0
   44.6672   33.4870   47.6598 H   0  0  0  0  0  0  0  0  0  0  0  0
   44.7472   31.6925   47.6598 H   0  0  0  0  0  0  0  0  0  0  0  0
  1  6  2  0
  2  3  2  0
  2  1  1  0
  3  4  1  0
  4  5  2  0
  5  8  1  0
  6  5  1  0
  7  1  1  0
  8  9  1  0
  2 10  1  0
  3 11  1  0
  7 12  1  0
  7 13  1  0
  8 14  1  0
  8 15  1  0
  9 16  1  0
  9 17  1  0
  9 18  1  0
M  ISO  7  10  14  11  14  14   8  15   8  16   8  17   8  18   8
M  END
>  <minimizedAffinity>  (1) 
-3.79839444

>  <minimizedRMSD>  (1) 
0.91040498

$$$$
