
     RDKit          3D

 20 20  0  0  0  0  0  0  0  0999 V2000
   44.9590   34.9850   44.5500 C   0  0  0  0  0  0  0  0  0  0  0  0
   45.8940   34.8370   43.5230 C   0  0  0  0  0  0  0  0  0  0  0  0
   46.9560   33.9290   43.6440 C   0  0  0  0  0  0  0  0  0  0  0  0
   47.0080   33.2250   44.7920 N   0  0  0  0  0  0  0  0  0  0  0  0
   46.1050   33.3720   45.7740 C   0  0  0  0  0  0  0  0  0  0  0  0
   45.0910   34.2480   45.6450 N   0  0  0  0  0  0  0  0  0  0  0  0
   43.9070   35.9120   44.3820 N   0  0  0  0  0  0  0  0  0  0  0  0
   46.1680   32.6040   47.0180 C   0  0  0  0  0  0  0  0  0  0  0  0
   45.3780   32.7890   47.9690 O   0  0  0  0  0  0  0  0  0  0  0  0
   47.1590   31.6330   47.1200 O   0  0  0  0  0  0  0  0  0  0  0  0
   48.8110   31.6460   49.2350 O   0  0  0  0  0  0  0  0  0  0  0  0
   47.6230   30.9720   48.6360 P   0  0  0  0  0  0  0  0  0  0  0  0
   48.0510   29.3520   48.3130 O   0  0  0  0  0  0  0  0  0  0  0  0
   46.3320   30.9280   49.7200 O   0  0  0  0  0  0  0  0  0  0  0  0
   45.7962   35.4399   42.6082 H   0  0  0  0  0  0  0  0  0  0  0  0
   47.7036   33.7989   42.8476 H   0  0  0  0  0  0  0  0  0  0  0  0
   43.8412   36.4648   43.5154 H   0  0  0  0  0  0  0  0  0  0  0  0
   43.2055   36.0353   45.1261 H   0  0  0  0  0  0  0  0  0  0  0  0
   48.1789   28.8679   49.1670 H   0  0  0  0  0  0  0  0  0  0  0  0
   46.6790   30.9398   50.6471 H   0  0  0  0  0  0  0  0  0  0  0  0
  1  6  2  0
  2  3  2  0
  2  1  1  0
  3  4  1  0
  4  5  2  0
  5  8  1  0
  6  5  1  0
  7  1  1  0
  8 10  1  0
  8  9  2  0
 10 12  1  0
 12 11  2  0
 12 14  1  0
 13 12  1  0
  2 15  1  0
  3 16  1  0
  7 17  1  0
  7 18  1  0
 13 19  1  0
 14 20  1  0
M  ISO  4  15  14  16  14  19   3  20   3
M  END
>  <minimizedAffinity>  (1) 
-4.97893906

>  <minimizedRMSD>  (1) 
1.44896221

$$$$
