
     RDKit          3D

 26 27  0  0  0  0  0  0  0  0999 V2000
   44.9020   35.0380   44.4620 C   0  0  0  0  0  0  0  0  0  0  0  0
   45.8700   34.9000   43.4470 C   0  0  0  0  0  0  0  0  0  0  0  0
   46.9230   34.0030   43.6570 C   0  0  0  0  0  0  0  0  0  0  0  0
   46.9510   33.3230   44.8180 N   0  0  0  0  0  0  0  0  0  0  0  0
   46.0290   33.4600   45.7730 C   0  0  0  0  0  0  0  0  0  0  0  0
   45.0040   34.3220   45.5890 N   0  0  0  0  0  0  0  0  0  0  0  0
   43.8260   35.9490   44.2560 N   0  0  0  0  0  0  0  0  0  0  0  0
   46.0290   32.7450   47.0320 C   0  0  0  0  0  0  0  0  0  0  0  0
   45.1240   32.8460   47.9060 O   0  0  0  0  0  0  0  0  0  0  0  0
   47.0980   31.8600   47.3470 N   0  0  0  0  0  0  0  0  0  0  0  0
   47.5190   30.6810   46.6160 C   0  0  0  0  0  0  0  0  0  0  0  0
   47.8040   29.7440   47.7830 C   0  0  0  0  0  0  0  0  0  0  0  0
   48.6550   30.6420   48.6510 C   0  0  0  0  0  0  0  0  0  0  0  0
   48.0000   31.9770   48.5020 C   0  0  0  0  0  0  0  0  0  0  0  0
   45.7996   35.4812   42.5158 H   0  0  0  0  0  0  0  0  0  0  0  0
   47.7042   33.8580   42.8963 H   0  0  0  0  0  0  0  0  0  0  0  0
   43.7687   36.4889   43.3807 H   0  0  0  0  0  0  0  0  0  0  0  0
   43.1054   36.0677   44.9824 H   0  0  0  0  0  0  0  0  0  0  0  0
   46.7197   30.2948   45.9664 H   0  0  0  0  0  0  0  0  0  0  0  0
   48.3615   30.8362   45.9260 H   0  0  0  0  0  0  0  0  0  0  0  0
   46.8795   29.4401   48.2957 H   0  0  0  0  0  0  0  0  0  0  0  0
   48.2781   28.7917   47.5029 H   0  0  0  0  0  0  0  0  0  0  0  0
   48.6386   30.3089   49.6992 H   0  0  0  0  0  0  0  0  0  0  0  0
   49.7158   30.6459   48.3599 H   0  0  0  0  0  0  0  0  0  0  0  0
   48.7557   32.7551   48.3193 H   0  0  0  0  0  0  0  0  0  0  0  0
   47.4528   32.2609   49.4130 H   0  0  0  0  0  0  0  0  0  0  0  0
  1  6  2  0
  2  3  2  0
  2  1  1  0
  3  4  1  0
  4  5  2  0
  5  8  1  0
  6  5  1  0
  7  1  1  0
  8 10  1  0
  8  9  2  0
 10 14  1  0
 11 10  1  0
 11 12  1  0
 12 13  1  0
 14 13  1  0
  2 15  1  0
  3 16  1  0
  7 17  1  0
  7 18  1  0
 11 19  1  0
 11 20  1  0
 12 21  1  0
 12 22  1  0
 13 23  1  0
 13 24  1  0
 14 25  1  0
 14 26  1  0
M  ISO  8  15  14  16  14  19  13  20  13  21  13  22  13  23  13  24  13
M  ISO  2  25  13  26  13
M  END
>  <minimizedAffinity>  (1) 
-4.94894791

>  <minimizedRMSD>  (1) 
0.504362106

$$$$
