
     RDKit          3D

 25 26  0  0  1  0  0  0  0  0999 V2000
   44.9080   35.0460   44.4740 C   0  0  0  0  0  0  0  0  0  0  0  0
   45.8580   34.9120   43.4570 C   0  0  0  0  0  0  0  0  0  0  0  0
   46.9070   34.0040   43.6440 C   0  0  0  0  0  0  0  0  0  0  0  0
   46.9300   33.3130   44.8030 N   0  0  0  0  0  0  0  0  0  0  0  0
   46.0220   33.4460   45.7630 C   0  0  0  0  0  0  0  0  0  0  0  0
   45.0070   34.3260   45.5840 N   0  0  0  0  0  0  0  0  0  0  0  0
   43.8450   35.9650   44.2890 N   0  0  0  0  0  0  0  0  0  0  0  0
   46.0570   32.6990   47.0040 C   0  0  0  0  0  0  0  0  0  0  0  0
   45.1430   32.8020   47.8780 O   0  0  0  0  0  0  0  0  0  0  0  0
   47.1760   31.7850   47.2840 C   0  0  1  0  0  0  0  0  0  0  0  0
   47.9640   32.0980   48.5130 C   0  0  0  0  0  0  0  0  0  0  0  0
   48.3880   30.7210   48.9930 C   0  0  0  0  0  0  0  0  0  0  0  0
   47.9090   29.7990   48.0590 O   0  0  0  0  0  0  0  0  0  0  0  0
   46.7300   30.3660   47.5410 C   0  0  0  0  0  0  0  0  0  0  0  0
   45.7831   35.5049   42.5335 H   0  0  0  0  0  0  0  0  0  0  0  0
   47.6818   33.8595   42.8767 H   0  0  0  0  0  0  0  0  0  0  0  0
   43.7851   36.5151   43.4203 H   0  0  0  0  0  0  0  0  0  0  0  0
   43.1324   36.0828   45.0233 H   0  0  0  0  0  0  0  0  0  0  0  0
   47.7764   31.9094   46.3708 H   0  0  0  0  0  0  0  0  0  0  0  0
   48.8379   32.7227   48.2762 H   0  0  0  0  0  0  0  0  0  0  0  0
   47.3967   32.6679   49.2636 H   0  0  0  0  0  0  0  0  0  0  0  0
   49.4848   30.6628   49.0534 H   0  0  0  0  0  0  0  0  0  0  0  0
   47.9840   30.5121   49.9946 H   0  0  0  0  0  0  0  0  0  0  0  0
   45.9091   30.3275   48.2722 H   0  0  0  0  0  0  0  0  0  0  0  0
   46.3323   29.8500   46.6547 H   0  0  0  0  0  0  0  0  0  0  0  0
  1  6  2  0
  2  3  2  0
  2  1  1  0
  3  4  1  0
  4  5  2  0
  5  8  1  0
  6  5  1  0
  7  1  1  0
  8  9  2  0
 10  8  1  0
 10 14  1  0
 10 11  1  0
 11 12  1  0
 13 12  1  0
 14 13  1  0
  2 15  1  0
  3 16  1  0
  7 17  1  0
  7 18  1  0
 10 19  1  6
 11 20  1  0
 11 21  1  0
 12 22  1  0
 12 23  1  0
 14 24  1  0
 14 25  1  0
M  ISO  8  15  14  16  14  19  13  20  13  21  13  22  13  23  13  24  13
M  ISO  1  25  13
M  END
>  <minimizedAffinity>  (1) 
-4.78130436

>  <minimizedRMSD>  (1) 
0.53750819

$$$$
