
     RDKit          3D

 43 45  0  0  1  0  0  0  0  0999 V2000
   47.5060   31.8630   47.4030 C   0  0  1  0  0  0  0  0  0  0  0  0
   47.6850   31.8550   48.8930 C   0  0  0  0  0  0  0  0  0  0  0  0
   48.9190   31.0850   49.2620 C   0  0  0  0  0  0  0  0  0  0  0  0
   48.8990   29.7320   48.6450 C   0  0  0  0  0  0  0  0  0  0  0  0
   48.6440   29.7290   47.1700 C   0  0  0  0  0  0  0  0  0  0  0  0
   47.3480   30.4230   46.8800 C   0  0  1  0  0  0  0  0  0  0  0  0
   46.0060   28.3270   47.1740 C   0  0  1  0  0  0  0  0  0  0  0  0
   46.1120   29.8130   47.3750 C   0  0  2  0  0  0  0  0  0  0  0  0
   45.0940   30.2000   46.4660 O   0  0  0  0  0  0  0  0  0  0  0  0
   45.2900   29.4910   45.3050 C   0  0  0  0  0  0  0  0  0  0  0  0
   46.0590   28.2300   45.6800 C   0  0  2  0  0  0  0  0  0  0  0  0
   46.9240   27.5770   47.8500 O   0  0  0  0  0  0  0  0  0  0  0  0
   45.4270   27.0870   45.2070 O   0  0  0  0  0  0  0  0  0  0  0  0
   46.3430   32.6970   47.0380 C   0  0  0  0  0  0  0  0  0  0  0  0
   45.5100   32.7070   47.9820 O   0  0  0  0  0  0  0  0  0  0  0  0
   44.9250   34.9260   44.5660 C   0  0  0  0  0  0  0  0  0  0  0  0
   45.7550   34.7730   43.4580 C   0  0  0  0  0  0  0  0  0  0  0  0
   46.8410   33.8830   43.5560 C   0  0  0  0  0  0  0  0  0  0  0  0
   46.9910   33.2420   44.7310 N   0  0  0  0  0  0  0  0  0  0  0  0
   46.1850   33.3990   45.7880 C   0  0  0  0  0  0  0  0  0  0  0  0
   45.1320   34.2520   45.7180 N   0  0  0  0  0  0  0  0  0  0  0  0
   43.8380   35.8130   44.4640 N   0  0  0  0  0  0  0  0  0  0  0  0
   48.3996   32.2985   46.9321 H   0  0  0  0  0  0  0  0  0  0  0  0
   47.7811   32.8899   49.2531 H   0  0  0  0  0  0  0  0  0  0  0  0
   46.8104   31.3759   49.3573 H   0  0  0  0  0  0  0  0  0  0  0  0
   49.8051   31.6310   48.9061 H   0  0  0  0  0  0  0  0  0  0  0  0
   48.9526   30.9742   50.3559 H   0  0  0  0  0  0  0  0  0  0  0  0
   49.8742   29.2566   48.8266 H   0  0  0  0  0  0  0  0  0  0  0  0
   48.0636   29.1875   49.1092 H   0  0  0  0  0  0  0  0  0  0  0  0
   49.4628   30.2540   46.6563 H   0  0  0  0  0  0  0  0  0  0  0  0
   48.5891   28.6903   46.8120 H   0  0  0  0  0  0  0  0  0  0  0  0
   47.1939   30.3540   45.7930 H   0  0  0  0  0  0  0  0  0  0  0  0
   45.0939   27.8887   47.6053 H   0  0  0  0  0  0  0  0  0  0  0  0
   46.0588   30.0983   48.4360 H   0  0  0  0  0  0  0  0  0  0  0  0
   45.8723   30.0903   44.5897 H   0  0  0  0  0  0  0  0  0  0  0  0
   44.3299   29.2398   44.8306 H   0  0  0  0  0  0  0  0  0  0  0  0
   47.0737   28.1592   45.2612 H   0  0  0  0  0  0  0  0  0  0  0  0
   46.7879   27.6882   48.8243 H   0  0  0  0  0  0  0  0  0  0  0  0
   45.1231   26.5373   45.9722 H   0  0  0  0  0  0  0  0  0  0  0  0
   45.5666   35.3333   42.5303 H   0  0  0  0  0  0  0  0  0  0  0  0
   47.5319   33.7193   42.7159 H   0  0  0  0  0  0  0  0  0  0  0  0
   43.6753   36.3296   43.5879 H   0  0  0  0  0  0  0  0  0  0  0  0
   43.2047   35.9458   45.2654 H   0  0  0  0  0  0  0  0  0  0  0  0
  1  2  1  0
  2  3  1  0
  4  3  1  0
  5  4  1  0
  6  5  1  0
  6  8  1  0
  6  1  1  0
  7  8  1  0
  7 12  1  0
  8  9  1  0
 10 11  1  0
 10  9  1  0
 11 13  1  0
 11  7  1  0
 14  1  1  0
 14 15  2  0
 16 21  2  0
 17 18  2  0
 17 16  1  0
 18 19  1  0
 19 20  2  0
 20 14  1  0
 21 20  1  0
 22 16  1  0
  1 23  1  6
  2 24  1  0
  2 25  1  0
  3 26  1  0
  3 27  1  0
  4 28  1  0
  4 29  1  0
  5 30  1  0
  5 31  1  0
  6 32  1  6
  7 33  1  1
  8 34  1  1
 10 35  1  0
 10 36  1  0
 11 37  1  6
 12 38  1  0
 13 39  1  0
 17 40  1  0
 18 41  1  0
 22 42  1  0
 22 43  1  0
M  ISO  8  23  13  24  13  25  13  26  13  27  13  28  13  29  13  30  13
M  ISO  8  31  13  32  13  33  13  34  13  35  13  36  13  37  13  38   3
M  ISO  3  39   3  40  14  41  14
M  END
>  <minimizedAffinity>  (1) 
-5.76968479

>  <minimizedRMSD>  (1) 
1.12526572

$$$$
