
     RDKit          3D

 38 40  0  0  1  0  0  0  0  0999 V2000
   47.3570   31.8720   47.3950 C   0  0  1  0  0  0  0  0  0  0  0  0
   47.1930   31.5030   48.8490 C   0  0  0  0  0  0  0  0  0  0  0  0
   48.4190   30.7810   49.3240 C   0  0  0  0  0  0  0  0  0  0  0  0
   48.7270   29.6220   48.4540 C   0  0  0  0  0  0  0  0  0  0  0  0
   48.8210   29.9660   47.0020 C   0  0  0  0  0  0  0  0  0  0  0  0
   47.5280   30.5840   46.5590 C   0  0  1  0  0  0  0  0  0  0  0  0
   46.3640   29.7210   46.5690 C   0  0  0  0  0  0  0  0  0  0  0  0
   46.3990   28.6250   47.4420 C   0  0  0  0  0  0  0  0  0  0  0  0
   45.3420   27.7140   47.5570 C   0  0  0  0  0  0  0  0  0  0  0  0
   44.2440   27.9250   46.7760 N   0  0  0  0  0  0  0  0  0  0  0  0
   44.2760   28.9890   45.9630 C   0  0  0  0  0  0  0  0  0  0  0  0
   45.2620   29.8890   45.8170 N   0  0  0  0  0  0  0  0  0  0  0  0
   46.1880   32.6530   46.9430 C   0  0  0  0  0  0  0  0  0  0  0  0
   45.2580   32.5700   47.7890 O   0  0  0  0  0  0  0  0  0  0  0  0
   44.9640   34.9850   44.4620 C   0  0  0  0  0  0  0  0  0  0  0  0
   45.8710   34.8780   43.4200 C   0  0  0  0  0  0  0  0  0  0  0  0
   46.9300   33.9910   43.5640 C   0  0  0  0  0  0  0  0  0  0  0  0
   47.0000   33.2930   44.7160 N   0  0  0  0  0  0  0  0  0  0  0  0
   46.1220   33.4010   45.7180 C   0  0  0  0  0  0  0  0  0  0  0  0
   45.0960   34.2560   45.5840 N   0  0  0  0  0  0  0  0  0  0  0  0
   43.8630   35.8850   44.3680 N   0  0  0  0  0  0  0  0  0  0  0  0
   48.2534   32.4956   47.2629 H   0  0  0  0  0  0  0  0  0  0  0  0
   47.0516   32.4165   49.4452 H   0  0  0  0  0  0  0  0  0  0  0  0
   46.3155   30.8498   48.9644 H   0  0  0  0  0  0  0  0  0  0  0  0
   49.2719   31.4755   49.3123 H   0  0  0  0  0  0  0  0  0  0  0  0
   48.2340   30.4125   50.3438 H   0  0  0  0  0  0  0  0  0  0  0  0
   49.6896   29.1954   48.7724 H   0  0  0  0  0  0  0  0  0  0  0  0
   47.8951   28.9104   48.5616 H   0  0  0  0  0  0  0  0  0  0  0  0
   49.6432   30.6797   46.8451 H   0  0  0  0  0  0  0  0  0  0  0  0
   49.0156   29.0548   46.4173 H   0  0  0  0  0  0  0  0  0  0  0  0
   47.5943   30.8058   45.4836 H   0  0  0  0  0  0  0  0  0  0  0  0
   47.2945   28.4742   48.0628 H   0  0  0  0  0  0  0  0  0  0  0  0
   45.3951   26.8615   48.2501 H   0  0  0  0  0  0  0  0  0  0  0  0
   43.3845   29.1449   45.3377 H   0  0  0  0  0  0  0  0  0  0  0  0
   45.7557   35.4781   42.5053 H   0  0  0  0  0  0  0  0  0  0  0  0
   47.6812   33.8629   42.7707 H   0  0  0  0  0  0  0  0  0  0  0  0
   43.7360   36.4566   43.5206 H   0  0  0  0  0  0  0  0  0  0  0  0
   43.1943   35.9639   45.1474 H   0  0  0  0  0  0  0  0  0  0  0  0
  1  2  1  0
  2  3  1  0
  4  3  1  0
  5  4  1  0
  6  7  1  0
  6  5  1  0
  6  1  1  0
  7  8  2  0
  8  9  1  0
 10  9  2  0
 11 10  1  0
 12 11  2  0
 12  7  1  0
 13  1  1  0
 13 14  2  0
 15 20  2  0
 16 17  2  0
 16 15  1  0
 17 18  1  0
 18 19  2  0
 19 13  1  0
 20 19  1  0
 21 15  1  0
  1 22  1  1
  2 23  1  0
  2 24  1  0
  3 25  1  0
  3 26  1  0
  4 27  1  0
  4 28  1  0
  5 29  1  0
  5 30  1  0
  6 31  1  6
  8 32  1  0
  9 33  1  0
 11 34  1  0
 16 35  1  0
 17 36  1  0
 21 37  1  0
 21 38  1  0
M  ISO  8  22  13  23  13  24  13  25  13  26  13  27  13  28  13  29  13
M  ISO  7  30  13  31  13  32  14  33  14  34  14  35  14  36  14
M  END
>  <minimizedAffinity>  (1) 
-5.70784664

>  <minimizedRMSD>  (1) 
0.763546467

$$$$
