
     RDKit          3D

 39 41  0  0  1  0  0  0  0  0999 V2000
   47.3110   31.8510   47.3890 C   0  0  1  0  0  0  0  0  0  0  0  0
   47.9120   32.4130   48.6590 C   0  0  0  0  0  0  0  0  0  0  0  0
   49.1270   31.6350   49.0520 C   0  0  0  0  0  0  0  0  0  0  0  0
   48.7790   30.1820   49.1660 C   0  0  0  0  0  0  0  0  0  0  0  0
   48.1410   29.6350   47.9230 C   0  0  0  0  0  0  0  0  0  0  0  0
   46.8530   30.4080   47.7080 C   0  0  2  0  0  0  0  0  0  0  0  0
   45.9770   29.8180   46.7240 C   0  0  0  0  0  0  0  0  0  0  0  0
   44.6900   29.2870   46.8800 C   0  0  0  0  0  0  0  0  0  0  0  0
   43.9580   28.7530   45.8630 C   0  0  0  0  0  0  0  0  0  0  0  0
   44.4930   28.7230   44.6050 C   0  0  0  0  0  0  0  0  0  0  0  0
   45.7590   29.2400   44.4320 C   0  0  0  0  0  0  0  0  0  0  0  0
   46.4510   29.7570   45.4440 N   0  0  0  0  0  0  0  0  0  0  0  0
   46.1600   32.6980   46.9890 C   0  0  0  0  0  0  0  0  0  0  0  0
   45.2650   32.6980   47.8790 O   0  0  0  0  0  0  0  0  0  0  0  0
   44.9360   35.0100   44.4940 C   0  0  0  0  0  0  0  0  0  0  0  0
   45.8430   34.8720   43.4390 C   0  0  0  0  0  0  0  0  0  0  0  0
   46.9030   33.9640   43.5810 C   0  0  0  0  0  0  0  0  0  0  0  0
   46.9530   33.2910   44.7470 N   0  0  0  0  0  0  0  0  0  0  0  0
   46.1040   33.4170   45.7430 C   0  0  0  0  0  0  0  0  0  0  0  0
   45.0840   34.2900   45.6080 N   0  0  0  0  0  0  0  0  0  0  0  0
   43.8680   35.9250   44.3710 N   0  0  0  0  0  0  0  0  0  0  0  0
   48.0326   31.8409   46.5589 H   0  0  0  0  0  0  0  0  0  0  0  0
   48.1929   33.4634   48.4926 H   0  0  0  0  0  0  0  0  0  0  0  0
   47.1680   32.3428   49.4662 H   0  0  0  0  0  0  0  0  0  0  0  0
   49.9080   31.7655   48.2884 H   0  0  0  0  0  0  0  0  0  0  0  0
   49.4958   31.9993   50.0222 H   0  0  0  0  0  0  0  0  0  0  0  0
   49.7002   29.6152   49.3663 H   0  0  0  0  0  0  0  0  0  0  0  0
   48.0499   30.0804   49.9833 H   0  0  0  0  0  0  0  0  0  0  0  0
   48.8120   29.7722   47.0623 H   0  0  0  0  0  0  0  0  0  0  0  0
   47.9400   28.5585   48.0262 H   0  0  0  0  0  0  0  0  0  0  0  0
   46.2098   30.3906   48.6002 H   0  0  0  0  0  0  0  0  0  0  0  0
   44.2434   29.3023   47.8851 H   0  0  0  0  0  0  0  0  0  0  0  0
   42.9512   28.3518   46.0510 H   0  0  0  0  0  0  0  0  0  0  0  0
   43.9315   28.3002   43.7588 H   0  0  0  0  0  0  0  0  0  0  0  0
   46.2100   29.2247   43.4288 H   0  0  0  0  0  0  0  0  0  0  0  0
   45.7280   35.4623   42.5180 H   0  0  0  0  0  0  0  0  0  0  0  0
   47.6491   33.8107   42.7873 H   0  0  0  0  0  0  0  0  0  0  0  0
   43.7598   36.4774   43.5084 H   0  0  0  0  0  0  0  0  0  0  0  0
   43.1969   36.0402   45.1439 H   0  0  0  0  0  0  0  0  0  0  0  0
  1  6  1  0
  1  2  1  0
  2  3  1  0
  3  4  1  0
  5  4  1  0
  6  5  1  0
  7  8  2  0
  7  6  1  0
  9  8  1  0
 10  9  2  0
 11 10  1  0
 11 12  2  0
 12  7  1  0
 13  1  1  0
 13 14  2  0
 15 20  2  0
 16 17  2  0
 16 15  1  0
 17 18  1  0
 18 19  2  0
 19 13  1  0
 20 19  1  0
 21 15  1  0
  1 22  1  6
  2 23  1  0
  2 24  1  0
  3 25  1  0
  3 26  1  0
  4 27  1  0
  4 28  1  0
  5 29  1  0
  5 30  1  0
  6 31  1  1
  8 32  1  0
  9 33  1  0
 10 34  1  0
 11 35  1  0
 16 36  1  0
 17 37  1  0
 21 38  1  0
 21 39  1  0
M  ISO  8  22  13  23  13  24  13  25  13  26  13  27  13  28  13  29  13
M  ISO  8  30  13  31  13  32  14  33  14  34  14  35  14  36  14  37  14
M  END
>  <minimizedAffinity>  (1) 
-5.70108509

>  <minimizedRMSD>  (1) 
1.48026276

$$$$
