
     RDKit          3D

 37 39  0  0  1  0  0  0  0  0999 V2000
   47.3020   31.8500   47.3910 C   0  0  1  0  0  0  0  0  0  0  0  0
   47.9170   32.4100   48.6610 C   0  0  0  0  0  0  0  0  0  0  0  0
   49.1220   31.5980   49.0390 C   0  0  0  0  0  0  0  0  0  0  0  0
   48.7800   30.1550   49.1260 C   0  0  0  0  0  0  0  0  0  0  0  0
   48.1210   29.6200   47.8820 C   0  0  0  0  0  0  0  0  0  0  0  0
   46.8350   30.4100   47.7020 C   0  0  2  0  0  0  0  0  0  0  0  0
   45.9110   29.8340   46.7620 C   0  0  0  0  0  0  0  0  0  0  0  0
   44.6360   29.2600   46.8720 C   0  0  0  0  0  0  0  0  0  0  0  0
   44.1720   28.8500   45.6380 C   0  0  0  0  0  0  0  0  0  0  0  0
   45.2140   29.2030   44.8050 C   0  0  0  0  0  0  0  0  0  0  0  0
   46.2000   29.7640   45.4630 O   0  0  0  0  0  0  0  0  0  0  0  0
   46.1620   32.7150   46.9940 C   0  0  0  0  0  0  0  0  0  0  0  0
   45.2750   32.7240   47.8910 O   0  0  0  0  0  0  0  0  0  0  0  0
   44.9380   35.0100   44.4840 C   0  0  0  0  0  0  0  0  0  0  0  0
   45.8320   34.8690   43.4300 C   0  0  0  0  0  0  0  0  0  0  0  0
   46.9000   33.9620   43.5770 C   0  0  0  0  0  0  0  0  0  0  0  0
   46.9480   33.3060   44.7550 N   0  0  0  0  0  0  0  0  0  0  0  0
   46.1000   33.4380   45.7530 C   0  0  0  0  0  0  0  0  0  0  0  0
   45.0720   34.3070   45.6220 N   0  0  0  0  0  0  0  0  0  0  0  0
   43.8570   35.9230   44.3420 N   0  0  0  0  0  0  0  0  0  0  0  0
   48.0204   31.8288   46.5583 H   0  0  0  0  0  0  0  0  0  0  0  0
   48.2179   33.4545   48.4921 H   0  0  0  0  0  0  0  0  0  0  0  0
   47.1778   32.3661   49.4744 H   0  0  0  0  0  0  0  0  0  0  0  0
   49.9042   31.7380   48.2783 H   0  0  0  0  0  0  0  0  0  0  0  0
   49.4798   31.9354   50.0230 H   0  0  0  0  0  0  0  0  0  0  0  0
   49.7057   29.5873   49.3018 H   0  0  0  0  0  0  0  0  0  0  0  0
   48.0596   30.0413   49.9494 H   0  0  0  0  0  0  0  0  0  0  0  0
   48.7792   29.7618   47.0121 H   0  0  0  0  0  0  0  0  0  0  0  0
   47.9173   28.5427   47.9713 H   0  0  0  0  0  0  0  0  0  0  0  0
   46.2121   30.3957   48.6085 H   0  0  0  0  0  0  0  0  0  0  0  0
   44.0802   29.1511   47.8150 H   0  0  0  0  0  0  0  0  0  0  0  0
   43.2172   28.3663   45.3841 H   0  0  0  0  0  0  0  0  0  0  0  0
   45.2172   29.0339   43.7181 H   0  0  0  0  0  0  0  0  0  0  0  0
   45.7091   35.4506   42.5044 H   0  0  0  0  0  0  0  0  0  0  0  0
   47.6450   33.7995   42.7842 H   0  0  0  0  0  0  0  0  0  0  0  0
   43.7505   36.4637   43.4718 H   0  0  0  0  0  0  0  0  0  0  0  0
   43.1806   36.0436   45.1093 H   0  0  0  0  0  0  0  0  0  0  0  0
  1  6  1  0
  1  2  1  0
  2  3  1  0
  3  4  1  0
  5  4  1  0
  6  5  1  0
  7  8  2  0
  7  6  1  0
  9  8  1  0
 10 11  1  0
 10  9  2  0
 11  7  1  0
 12  1  1  0
 12 13  2  0
 14 19  2  0
 15 16  2  0
 15 14  1  0
 16 17  1  0
 17 18  2  0
 18 12  1  0
 19 18  1  0
 20 14  1  0
  1 21  1  6
  2 22  1  0
  2 23  1  0
  3 24  1  0
  3 25  1  0
  4 26  1  0
  4 27  1  0
  5 28  1  0
  5 29  1  0
  6 30  1  1
  8 31  1  0
  9 32  1  0
 10 33  1  0
 15 34  1  0
 16 35  1  0
 20 36  1  0
 20 37  1  0
M  ISO  8  21  13  22  13  23  13  24  13  25  13  26  13  27  13  28  13
M  ISO  7  29  13  30  13  31  14  32  14  33  14  34  14  35  14
M  END
>  <minimizedAffinity>  (1) 
-5.595366

>  <minimizedRMSD>  (1) 
1.29784453

$$$$
