
     RDKit          3D

 37 39  0  0  1  0  0  0  0  0999 V2000
   47.2050   31.8670   47.2750 C   0  0  1  0  0  0  0  0  0  0  0  0
   47.8470   32.3600   48.5600 C   0  0  0  0  0  0  0  0  0  0  0  0
   49.0270   31.4980   48.8990 C   0  0  0  0  0  0  0  0  0  0  0  0
   48.5980   30.0700   48.9920 C   0  0  0  0  0  0  0  0  0  0  0  0
   47.8840   29.5890   47.7670 C   0  0  0  0  0  0  0  0  0  0  0  0
   46.6480   30.4540   47.5920 C   0  0  2  0  0  0  0  0  0  0  0  0
   45.7130   29.9370   46.6190 C   0  0  0  0  0  0  0  0  0  0  0  0
   45.5960   29.9250   45.2340 C   0  0  0  0  0  0  0  0  0  0  0  0
   44.4990   29.2890   44.8090 N   0  0  0  0  0  0  0  0  0  0  0  0
   43.8850   28.8780   45.9150 C   0  0  0  0  0  0  0  0  0  0  0  0
   44.5930   29.2550   46.9920 N   0  0  0  0  0  0  0  0  0  0  0  0
   46.1030   32.7900   46.9280 C   0  0  0  0  0  0  0  0  0  0  0  0
   45.2320   32.8550   47.8400 O   0  0  0  0  0  0  0  0  0  0  0  0
   44.8780   35.0880   44.4060 C   0  0  0  0  0  0  0  0  0  0  0  0
   45.7950   34.9680   43.3650 C   0  0  0  0  0  0  0  0  0  0  0  0
   46.8670   34.0830   43.5260 C   0  0  0  0  0  0  0  0  0  0  0  0
   46.9160   33.4130   44.6960 N   0  0  0  0  0  0  0  0  0  0  0  0
   46.0370   33.5320   45.6880 C   0  0  0  0  0  0  0  0  0  0  0  0
   44.9950   34.3850   45.5470 N   0  0  0  0  0  0  0  0  0  0  0  0
   43.7870   35.9830   44.2510 N   0  0  0  0  0  0  0  0  0  0  0  0
   47.9098   31.8276   46.4313 H   0  0  0  0  0  0  0  0  0  0  0  0
   48.1801   33.3998   48.4267 H   0  0  0  0  0  0  0  0  0  0  0  0
   47.1122   32.3092   49.3770 H   0  0  0  0  0  0  0  0  0  0  0  0
   49.7914   31.5997   48.1145 H   0  0  0  0  0  0  0  0  0  0  0  0
   49.4446   31.8163   49.8656 H   0  0  0  0  0  0  0  0  0  0  0  0
   49.4908   29.4457   49.1444 H   0  0  0  0  0  0  0  0  0  0  0  0
   47.8930   29.9940   49.8330 H   0  0  0  0  0  0  0  0  0  0  0  0
   48.5383   29.6861   46.8881 H   0  0  0  0  0  0  0  0  0  0  0  0
   47.6051   28.5300   47.8709 H   0  0  0  0  0  0  0  0  0  0  0  0
   46.0236   30.4737   48.4974 H   0  0  0  0  0  0  0  0  0  0  0  0
   46.3290   30.3899   44.5583 H   0  0  0  0  0  0  0  0  0  0  0  0
   44.1951   29.1478   43.8350 H   0  0  0  0  0  0  0  0  0  0  0  0
   42.9406   28.3147   45.9432 H   0  0  0  0  0  0  0  0  0  0  0  0
   45.6798   35.5532   42.4408 H   0  0  0  0  0  0  0  0  0  0  0  0
   47.6266   33.9416   42.7430 H   0  0  0  0  0  0  0  0  0  0  0  0
   43.6865   36.5269   43.3821 H   0  0  0  0  0  0  0  0  0  0  0  0
   43.0960   36.0885   45.0075 H   0  0  0  0  0  0  0  0  0  0  0  0
  1  6  1  0
  1  2  1  0
  2  3  1  0
  3  4  1  0
  5  4  1  0
  6  5  1  0
  7 11  1  0
  7  6  1  0
  8  7  2  0
  9  8  1  0
  9 10  1  0
 10 11  2  0
 12  1  1  0
 12 13  2  0
 14 19  2  0
 15 16  2  0
 15 14  1  0
 16 17  1  0
 17 18  2  0
 18 12  1  0
 19 18  1  0
 20 14  1  0
  1 21  1  6
  2 22  1  0
  2 23  1  0
  3 24  1  0
  3 25  1  0
  4 26  1  0
  4 27  1  0
  5 28  1  0
  5 29  1  0
  6 30  1  1
  8 31  1  0
  9 32  1  0
 10 33  1  0
 15 34  1  0
 16 35  1  0
 20 36  1  0
 20 37  1  0
M  ISO  8  21  13  22  13  23  13  24  13  25  13  26  13  27  13  28  13
M  ISO  7  29  13  30  13  31  14  32   9  33  14  34  14  35  14
M  END
>  <minimizedAffinity>  (1) 
-5.58361101

>  <minimizedRMSD>  (1) 
1.39801562

$$$$
