
     RDKit          3D

 44 46  0  0  1  0  0  0  0  0999 V2000
   47.3770   31.6620   47.5790 C   0  0  1  0  0  0  0  0  0  0  0  0
   48.0350   32.4100   48.7280 C   0  0  0  0  0  0  0  0  0  0  0  0
   49.3320   31.7460   49.0840 C   0  0  0  0  0  0  0  0  0  0  0  0
   49.0700   30.3130   49.4140 C   0  0  0  0  0  0  0  0  0  0  0  0
   48.4250   29.5750   48.2640 C   0  0  0  0  0  0  0  0  0  0  0  0
   47.0550   30.2530   48.0490 C   0  0  2  0  0  0  0  0  0  0  0  0
   46.2330   29.5790   47.1540 N   0  0  0  0  0  0  0  0  0  0  0  0
   46.6500   29.3420   45.8230 C   0  0  0  0  0  0  0  0  0  0  0  0
   45.7760   30.2330   44.9010 C   0  0  0  0  0  0  0  0  0  0  0  0
   44.4550   29.6800   44.9040 N   0  0  0  0  0  0  0  0  0  0  0  0
   44.1310   29.0230   46.1620 C   0  0  0  0  0  0  0  0  0  0  0  0
   44.8170   29.7990   47.2820 C   0  0  0  0  0  0  0  0  0  0  0  0
   46.2040   32.4060   47.1060 C   0  0  0  0  0  0  0  0  0  0  0  0
   45.2510   32.2470   47.9070 O   0  0  0  0  0  0  0  0  0  0  0  0
   45.0170   34.8200   44.6970 C   0  0  0  0  0  0  0  0  0  0  0  0
   45.9280   34.7400   43.6530 C   0  0  0  0  0  0  0  0  0  0  0  0
   47.0040   33.8350   43.7730 C   0  0  0  0  0  0  0  0  0  0  0  0
   47.0580   33.1100   44.9080 N   0  0  0  0  0  0  0  0  0  0  0  0
   46.1770   33.1950   45.9030 C   0  0  0  0  0  0  0  0  0  0  0  0
   45.1360   34.0650   45.8010 N   0  0  0  0  0  0  0  0  0  0  0  0
   43.9410   35.7260   44.5710 N   0  0  0  0  0  0  0  0  0  0  0  0
   48.0512   31.5783   46.7139 H   0  0  0  0  0  0  0  0  0  0  0  0
   48.2272   33.4499   48.4254 H   0  0  0  0  0  0  0  0  0  0  0  0
   47.3668   32.3980   49.6017 H   0  0  0  0  0  0  0  0  0  0  0  0
   50.0241   31.8075   48.2312 H   0  0  0  0  0  0  0  0  0  0  0  0
   49.7822   32.2509   49.9514 H   0  0  0  0  0  0  0  0  0  0  0  0
   50.0249   29.8247   49.6581 H   0  0  0  0  0  0  0  0  0  0  0  0
   48.3772   30.2826   50.2679 H   0  0  0  0  0  0  0  0  0  0  0  0
   49.0425   29.6620   47.3578 H   0  0  0  0  0  0  0  0  0  0  0  0
   48.3176   28.5016   48.4794 H   0  0  0  0  0  0  0  0  0  0  0  0
   46.4728   30.2498   48.9823 H   0  0  0  0  0  0  0  0  0  0  0  0
   47.7112   29.6079   45.7078 H   0  0  0  0  0  0  0  0  0  0  0  0
   46.5348   28.2797   45.5617 H   0  0  0  0  0  0  0  0  0  0  0  0
   46.1830   30.2306   43.8791 H   0  0  0  0  0  0  0  0  0  0  0  0
   45.7643   31.2726   45.2604 H   0  0  0  0  0  0  0  0  0  0  0  0
   43.7781   30.4396   44.7437 H   0  0  0  0  0  0  0  0  0  0  0  0
   43.0419   29.0265   46.3166 H   0  0  0  0  0  0  0  0  0  0  0  0
   44.4757   27.9785   46.1505 H   0  0  0  0  0  0  0  0  0  0  0  0
   44.4671   29.4361   48.2597 H   0  0  0  0  0  0  0  0  0  0  0  0
   44.5829   30.8714   47.2110 H   0  0  0  0  0  0  0  0  0  0  0  0
   45.8142   35.3657   42.7555 H   0  0  0  0  0  0  0  0  0  0  0  0
   47.7598   33.7268   42.9811 H   0  0  0  0  0  0  0  0  0  0  0  0
   43.8513   36.3044   43.7234 H   0  0  0  0  0  0  0  0  0  0  0  0
   43.2460   35.8084   45.3267 H   0  0  0  0  0  0  0  0  0  0  0  0
  1  6  1  0
  1  2  1  0
  2  3  1  0
  3  4  1  0
  5  4  1  0
  6  5  1  0
  7 12  1  0
  7  6  1  0
  8  7  1  0
  9 10  1  0
  9  8  1  0
 10 11  1  0
 11 12  1  0
 13  1  1  0
 13 14  2  0
 15 20  2  0
 16 17  2  0
 16 15  1  0
 17 18  1  0
 18 19  2  0
 19 13  1  0
 20 19  1  0
 21 15  1  0
  1 22  1  6
  2 23  1  0
  2 24  1  0
  3 25  1  0
  3 26  1  0
  4 27  1  0
  4 28  1  0
  5 29  1  0
  5 30  1  0
  6 31  1  1
  8 32  1  0
  8 33  1  0
  9 34  1  0
  9 35  1  0
 10 36  1  0
 11 37  1  0
 11 38  1  0
 12 39  1  0
 12 40  1  0
 16 41  1  0
 17 42  1  0
 21 43  1  0
 21 44  1  0
M  ISO  8  22  13  23  13  24  13  25  13  26  13  27  13  28  13  29  13
M  ISO  8  30  13  31  13  32  13  33  13  34  13  35  13  36   5  37  13
M  ISO  5  38  13  39  13  40  13  41  14  42  14
M  END
>  <minimizedAffinity>  (1) 
-5.55241585

>  <minimizedRMSD>  (1) 
1.5309068

$$$$
