
     RDKit          3D

 43 45  0  0  1  0  0  0  0  0999 V2000
   47.2640   31.8630   47.3250 C   0  0  1  0  0  0  0  0  0  0  0  0
   47.8020   32.3700   48.6650 C   0  0  0  0  0  0  0  0  0  0  0  0
   49.0200   31.5850   49.0420 C   0  0  0  0  0  0  0  0  0  0  0  0
   48.6940   30.1280   49.0390 C   0  0  0  0  0  0  0  0  0  0  0  0
   48.1610   29.6760   47.7190 C   0  0  0  0  0  0  0  0  0  0  0  0
   46.8090   30.4220   47.5080 C   0  0  2  0  0  0  0  0  0  0  0  0
   46.0330   29.8090   46.5370 N   0  0  0  0  0  0  0  0  0  0  0  0
   46.6070   29.0240   45.5220 C   0  0  0  0  0  0  0  0  0  0  0  0
   46.4480   27.5360   45.6720 C   0  0  0  0  0  0  0  0  0  0  0  0
   45.0850   27.2820   45.8000 O   0  0  0  0  0  0  0  0  0  0  0  0
   44.6670   27.8010   46.9980 C   0  0  0  0  0  0  0  0  0  0  0  0
   44.8220   29.2820   47.1170 C   0  0  0  0  0  0  0  0  0  0  0  0
   46.1350   32.7500   46.9500 C   0  0  0  0  0  0  0  0  0  0  0  0
   45.2410   32.7850   47.8400 O   0  0  0  0  0  0  0  0  0  0  0  0
   44.9060   35.0480   44.4290 C   0  0  0  0  0  0  0  0  0  0  0  0
   45.8290   34.9150   43.3760 C   0  0  0  0  0  0  0  0  0  0  0  0
   46.9040   34.0180   43.5430 C   0  0  0  0  0  0  0  0  0  0  0  0
   46.9360   33.3690   44.7190 N   0  0  0  0  0  0  0  0  0  0  0  0
   46.0760   33.4900   45.7060 C   0  0  0  0  0  0  0  0  0  0  0  0
   45.0330   34.3430   45.5740 N   0  0  0  0  0  0  0  0  0  0  0  0
   43.8260   35.9470   44.2650 N   0  0  0  0  0  0  0  0  0  0  0  0
   48.0228   31.8819   46.5288 H   0  0  0  0  0  0  0  0  0  0  0  0
   48.0647   33.4344   48.5757 H   0  0  0  0  0  0  0  0  0  0  0  0
   47.0314   32.2467   49.4402 H   0  0  0  0  0  0  0  0  0  0  0  0
   49.8227   31.7826   48.3163 H   0  0  0  0  0  0  0  0  0  0  0  0
   49.3524   31.8842   50.0470 H   0  0  0  0  0  0  0  0  0  0  0  0
   49.6077   29.5593   49.2665 H   0  0  0  0  0  0  0  0  0  0  0  0
   47.9166   29.9525   49.7972 H   0  0  0  0  0  0  0  0  0  0  0  0
   48.8668   29.9342   46.9157 H   0  0  0  0  0  0  0  0  0  0  0  0
   48.0204   28.5852   47.6995 H   0  0  0  0  0  0  0  0  0  0  0  0
   46.0804   30.3911   48.3315 H   0  0  0  0  0  0  0  0  0  0  0  0
   47.6839   29.2464   45.4925 H   0  0  0  0  0  0  0  0  0  0  0  0
   46.0681   29.2892   44.6005 H   0  0  0  0  0  0  0  0  0  0  0  0
   46.8461   27.0224   44.7844 H   0  0  0  0  0  0  0  0  0  0  0  0
   46.9993   27.1694   46.5504 H   0  0  0  0  0  0  0  0  0  0  0  0
   43.6026   27.5551   47.1267 H   0  0  0  0  0  0  0  0  0  0  0  0
   45.3071   27.3552   47.7735 H   0  0  0  0  0  0  0  0  0  0  0  0
   44.8119   29.5430   48.1855 H   0  0  0  0  0  0  0  0  0  0  0  0
   43.9882   29.7282   46.5551 H   0  0  0  0  0  0  0  0  0  0  0  0
   45.7153   35.4946   42.4480 H   0  0  0  0  0  0  0  0  0  0  0  0
   47.6643   33.8604   42.7639 H   0  0  0  0  0  0  0  0  0  0  0  0
   43.7309   36.4837   43.3911 H   0  0  0  0  0  0  0  0  0  0  0  0
   43.1348   36.0648   45.0195 H   0  0  0  0  0  0  0  0  0  0  0  0
  1  6  1  0
  1  2  1  0
  2  3  1  0
  4  3  1  0
  5  4  1  0
  6  5  1  0
  7 12  1  0
  7  6  1  0
  8  9  1  0
  8  7  1  0
  9 10  1  0
 10 11  1  0
 11 12  1  0
 13  1  1  0
 13 14  2  0
 15 20  2  0
 16 17  2  0
 16 15  1  0
 17 18  1  0
 18 19  2  0
 19 13  1  0
 20 19  1  0
 21 15  1  0
  1 22  1  6
  2 23  1  0
  2 24  1  0
  3 25  1  0
  3 26  1  0
  4 27  1  0
  4 28  1  0
  5 29  1  0
  5 30  1  0
  6 31  1  1
  8 32  1  0
  8 33  1  0
  9 34  1  0
  9 35  1  0
 11 36  1  0
 11 37  1  0
 12 38  1  0
 12 39  1  0
 16 40  1  0
 17 41  1  0
 21 42  1  0
 21 43  1  0
M  ISO  8  22  13  23  13  24  13  25  13  26  13  27  13  28  13  29  13
M  ISO  8  30  13  31  13  32  13  33  13  34  13  35  13  36  13  37  13
M  ISO  4  38  13  39  13  40  14  41  14
M  END
>  <minimizedAffinity>  (1) 
-5.53077698

>  <minimizedRMSD>  (1) 
1.55141938

$$$$
