
     RDKit          3D

 32 34  0  0  1  0  0  0  0  0999 V2000
   48.7450   32.3980   38.0830 C   0  0  0  0  0  0  0  0  0  0  0  0
   49.5320   32.1530   39.0970 C   0  0  0  0  0  0  0  0  0  0  0  0
   49.1690   32.5920   40.4010 N   0  0  0  0  0  0  0  0  0  0  0  0
   49.6140   33.1700   41.6480 C   0  0  0  0  0  0  0  0  0  0  0  0
   50.7220   33.5340   42.1700 O   0  0  0  0  0  0  0  0  0  0  0  0
   48.2290   33.1860   42.1300 C   0  0  2  0  0  0  0  0  0  0  0  0
   47.7810   32.5030   40.8880 C   0  0  1  0  0  0  0  0  0  0  0  0
   46.8000   33.4530   39.7380 S   0  0  0  0  0  0  0  0  0  0  0  0
   47.4550   33.1200   38.0990 C   0  0  0  0  0  0  0  0  0  0  0  0
   47.6440   34.5370   42.3990 C   0  0  0  0  0  0  0  0  0  0  0  0
   48.1470   35.4630   41.6910 O   0  0  0  0  0  0  0  0  0  0  0  0
   46.6190   34.6680   43.3820 C   0  0  0  0  0  0  0  0  0  0  0  0
   45.7300   35.7110   43.1270 C   0  0  0  0  0  0  0  0  0  0  0  0
   44.6840   35.9170   44.0450 C   0  0  0  0  0  0  0  0  0  0  0  0
   44.6170   35.0770   45.1210 N   0  0  0  0  0  0  0  0  0  0  0  0
   45.4970   34.0870   45.3260 C   0  0  0  0  0  0  0  0  0  0  0  0
   46.5000   33.8840   44.4510 N   0  0  0  0  0  0  0  0  0  0  0  0
   49.2320   31.8820   36.7780 C   0  0  0  0  0  0  0  0  0  0  0  0
   50.7990   31.4250   38.9500 C   0  0  0  0  0  0  0  0  0  0  0  0
   51.0040   30.1900   39.0490 O   0  0  0  0  0  0  0  0  0  0  0  0
   52.0080   32.0360   38.6680 O   0  0  0  0  0  0  0  0  0  0  0  0
   47.9779   32.7554   43.1105 H   0  0  0  0  0  0  0  0  0  0  0  0
   47.1791   31.5903   41.0087 H   0  0  0  0  0  0  0  0  0  0  0  0
   47.5946   34.0820   37.5841 H   0  0  0  0  0  0  0  0  0  0  0  0
   46.7260   32.4637   37.6011 H   0  0  0  0  0  0  0  0  0  0  0  0
   45.8424   36.3506   42.2391 H   0  0  0  0  0  0  0  0  0  0  0  0
   43.9488   36.7227   43.9023 H   0  0  0  0  0  0  0  0  0  0  0  0
   45.3997   33.4397   46.2100 H   0  0  0  0  0  0  0  0  0  0  0  0
   49.9776   31.0920   36.9512 H   0  0  0  0  0  0  0  0  0  0  0  0
   48.3864   31.4695   36.2082 H   0  0  0  0  0  0  0  0  0  0  0  0
   49.6927   32.7024   36.2082 H   0  0  0  0  0  0  0  0  0  0  0  0
   52.0512   33.0183   38.5526 H   0  0  0  0  0  0  0  0  0  0  0  0
  1  9  1  0
  1  2  2  0
  2  3  1  0
  3  7  1  0
  3  4  1  0
  4  6  1  0
  4  5  2  0
  6 10  1  0
  7  8  1  0
  7  6  1  0
  9  8  1  0
 10 12  1  0
 11 10  2  0
 12 17  1  0
 13 12  2  0
 13 14  1  0
 14 15  2  0
 15 16  1  0
 17 16  2  0
 18  1  1  0
 19 20  2  0
 19  2  1  0
 21 19  1  0
  6 22  1  1
  7 23  1  1
  9 24  1  0
  9 25  1  0
 13 26  1  0
 14 27  1  0
 16 28  1  0
 18 29  1  0
 18 30  1  0
 18 31  1  0
 21 32  1  0
M  ISO  8  22  13  23  13  24  13  25  13  26  14  27  14  28  14  29   8
M  ISO  3  30   8  31   8  32   3
M  END
>  <minimizedAffinity>  (1) 
-5.06334496

>  <minimizedRMSD>  (1) 
2.40338898

$$$$
