
     RDKit          3D

 41 44  0  0  0  0  0  0  0  0999 V2000
   47.6050   35.0530   42.0670 C   0  0  0  0  0  0  0  0  0  0  0  0
   48.7020   35.6740   42.1150 O   0  0  0  0  0  0  0  0  0  0  0  0
   46.2080   33.6910   40.4620 C   0  0  0  0  0  0  0  0  0  0  0  0
   47.3550   34.4340   40.7520 C   0  0  0  0  0  0  0  0  0  0  0  0
   48.2880   34.5980   39.7630 C   0  0  0  0  0  0  0  0  0  0  0  0
   48.1720   34.0730   38.4800 C   0  0  0  0  0  0  0  0  0  0  0  0
   48.9510   34.1140   37.3870 N   0  0  0  0  0  0  0  0  0  0  0  0
   48.3520   33.4280   36.4030 C   0  0  0  0  0  0  0  0  0  0  0  0
   47.1470   32.9340   36.8980 C   0  0  0  0  0  0  0  0  0  0  0  0
   47.0280   33.3400   38.2140 C   0  0  0  0  0  0  0  0  0  0  0  0
   46.0780   33.1600   39.1850 C   0  0  0  0  0  0  0  0  0  0  0  0
   46.6550   34.9170   43.1260 C   0  0  0  0  0  0  0  0  0  0  0  0
   45.5450   35.7720   43.0540 C   0  0  0  0  0  0  0  0  0  0  0  0
   44.6050   35.6430   44.0960 C   0  0  0  0  0  0  0  0  0  0  0  0
   44.8320   34.7150   45.0810 N   0  0  0  0  0  0  0  0  0  0  0  0
   45.9120   33.9390   45.0810 C   0  0  0  0  0  0  0  0  0  0  0  0
   46.8300   34.0390   44.0960 N   0  0  0  0  0  0  0  0  0  0  0  0
   46.1210   32.9850   46.1160 N   0  0  0  0  0  0  0  0  0  0  0  0
   47.0820   31.9240   46.0030 C   0  0  0  0  0  0  0  0  0  0  0  0
   46.3090   30.6210   45.9840 C   0  0  0  0  0  0  0  0  0  0  0  0
   45.2870   30.5220   47.0610 C   0  0  0  0  0  0  0  0  0  0  0  0
   45.2460   31.6950   48.0070 C   0  0  0  0  0  0  0  0  0  0  0  0
   45.3740   33.0300   47.3500 C   0  0  0  0  0  0  0  0  0  0  0  0
   45.4301   33.5311   41.2231 H   0  0  0  0  0  0  0  0  0  0  0  0
   49.1888   35.1837   39.9988 H   0  0  0  0  0  0  0  0  0  0  0  0
   49.8597   34.5938   37.3162 H   0  0  0  0  0  0  0  0  0  0  0  0
   48.7427   33.2812   35.3853 H   0  0  0  0  0  0  0  0  0  0  0  0
   46.4185   32.3276   36.3398 H   0  0  0  0  0  0  0  0  0  0  0  0
   45.1792   32.5733   38.9443 H   0  0  0  0  0  0  0  0  0  0  0  0
   45.4166   36.4967   42.2365 H   0  0  0  0  0  0  0  0  0  0  0  0
   43.7051   36.2751   44.1193 H   0  0  0  0  0  0  0  0  0  0  0  0
   47.6579   32.0344   45.0723 H   0  0  0  0  0  0  0  0  0  0  0  0
   47.7898   31.9464   46.8447 H   0  0  0  0  0  0  0  0  0  0  0  0
   45.8009   30.5316   45.0125 H   0  0  0  0  0  0  0  0  0  0  0  0
   47.0348   29.8115   46.1510 H   0  0  0  0  0  0  0  0  0  0  0  0
   44.2987   30.4308   46.5868 H   0  0  0  0  0  0  0  0  0  0  0  0
   45.5616   29.6462   47.6673 H   0  0  0  0  0  0  0  0  0  0  0  0
   44.2869   31.6682   48.5450 H   0  0  0  0  0  0  0  0  0  0  0  0
   46.1169   31.5901   48.6707 H   0  0  0  0  0  0  0  0  0  0  0  0
   45.8850   33.7139   48.0437 H   0  0  0  0  0  0  0  0  0  0  0  0
   44.3581   33.3738   47.1058 H   0  0  0  0  0  0  0  0  0  0  0  0
  1  2  2  0
  1 12  1  0
  3  4  2  0
  4  1  1  0
  5  4  1  0
  6  5  2  0
  7  6  1  0
  8  9  2  0
  8  7  1  0
  9 10  1  0
 10  6  1  0
 10 11  2  0
 11  3  1  0
 12 17  1  0
 13 12  2  0
 13 14  1  0
 14 15  2  0
 15 16  1  0
 16 18  1  0
 17 16  2  0
 18 23  1  0
 19 18  1  0
 20 19  1  0
 20 21  1  0
 21 22  1  0
 23 22  1  0
  3 24  1  0
  5 25  1  0
  7 26  1  0
  8 27  1  0
  9 28  1  0
 11 29  1  0
 13 30  1  0
 14 31  1  0
 19 32  1  0
 19 33  1  0
 20 34  1  0
 20 35  1  0
 21 36  1  0
 21 37  1  0
 22 38  1  0
 22 39  1  0
 23 40  1  0
 23 41  1  0
M  ISO  8  24  14  25  14  26   9  27  14  28  14  29  14  30  14  31  14
M  ISO  8  32  13  33  13  34  13  35  13  36  13  37  13  38  13  39  13
M  ISO  2  40  13  41  13
M  END
>  <minimizedAffinity>  (1) 
-6.80386257

>  <minimizedRMSD>  (1) 
0.499073327

$$$$
