
     RDKit          3D

 36 39  0  0  0  0  0  0  0  0999 V2000
   47.6030   35.0800   42.0310 C   0  0  0  0  0  0  0  0  0  0  0  0
   48.7040   35.6900   42.0920 O   0  0  0  0  0  0  0  0  0  0  0  0
   46.1960   33.7000   40.4340 C   0  0  0  0  0  0  0  0  0  0  0  0
   47.3330   34.4440   40.7250 C   0  0  0  0  0  0  0  0  0  0  0  0
   48.2910   34.6090   39.7290 C   0  0  0  0  0  0  0  0  0  0  0  0
   48.1870   34.0810   38.4650 C   0  0  0  0  0  0  0  0  0  0  0  0
   48.9630   34.1060   37.3640 N   0  0  0  0  0  0  0  0  0  0  0  0
   48.3680   33.4100   36.3870 C   0  0  0  0  0  0  0  0  0  0  0  0
   47.1680   32.9200   36.8760 C   0  0  0  0  0  0  0  0  0  0  0  0
   47.0430   33.3390   38.1940 C   0  0  0  0  0  0  0  0  0  0  0  0
   46.0850   33.1630   39.1590 C   0  0  0  0  0  0  0  0  0  0  0  0
   46.6360   34.9610   43.0880 C   0  0  0  0  0  0  0  0  0  0  0  0
   45.5690   35.8450   43.0400 C   0  0  0  0  0  0  0  0  0  0  0  0
   44.6320   35.7090   44.0940 C   0  0  0  0  0  0  0  0  0  0  0  0
   44.8230   34.7520   45.0590 N   0  0  0  0  0  0  0  0  0  0  0  0
   45.8770   33.9420   45.0310 C   0  0  0  0  0  0  0  0  0  0  0  0
   46.7910   34.0380   44.0490 N   0  0  0  0  0  0  0  0  0  0  0  0
   46.0580   32.9330   46.0700 C   0  0  0  0  0  0  0  0  0  0  0  0
   46.9410   31.8830   45.8920 C   0  0  0  0  0  0  0  0  0  0  0  0
   47.0950   30.9400   46.8910 C   0  0  0  0  0  0  0  0  0  0  0  0
   46.3570   31.0650   48.0550 C   0  0  0  0  0  0  0  0  0  0  0  0
   45.4590   32.1090   48.2660 C   0  0  0  0  0  0  0  0  0  0  0  0
   45.3350   33.0330   47.2410 C   0  0  0  0  0  0  0  0  0  0  0  0
   45.4110   33.5421   41.1882 H   0  0  0  0  0  0  0  0  0  0  0  0
   49.1877   35.1992   39.9689 H   0  0  0  0  0  0  0  0  0  0  0  0
   49.8714   34.5853   37.2860 H   0  0  0  0  0  0  0  0  0  0  0  0
   48.7634   33.2543   35.3724 H   0  0  0  0  0  0  0  0  0  0  0  0
   46.4432   32.3079   36.3193 H   0  0  0  0  0  0  0  0  0  0  0  0
   45.1910   32.5714   38.9123 H   0  0  0  0  0  0  0  0  0  0  0  0
   45.4582   36.5955   42.2435 H   0  0  0  0  0  0  0  0  0  0  0  0
   43.7532   36.3691   44.1388 H   0  0  0  0  0  0  0  0  0  0  0  0
   47.5182   31.7988   44.9594 H   0  0  0  0  0  0  0  0  0  0  0  0
   47.7950   30.1013   46.7624 H   0  0  0  0  0  0  0  0  0  0  0  0
   46.4845   30.3101   48.8449 H   0  0  0  0  0  0  0  0  0  0  0  0
   44.8792   32.1952   49.1968 H   0  0  0  0  0  0  0  0  0  0  0  0
   44.6371   33.8742   47.3649 H   0  0  0  0  0  0  0  0  0  0  0  0
  1  2  2  0
  1 12  1  0
  3  4  2  0
  4  1  1  0
  5  4  1  0
  6  5  2  0
  7  6  1  0
  8  9  2  0
  8  7  1  0
  9 10  1  0
 10  6  1  0
 10 11  2  0
 11  3  1  0
 12 17  1  0
 13 12  2  0
 13 14  1  0
 14 15  2  0
 16 15  1  0
 16 18  1  0
 17 16  2  0
 18 23  1  0
 19 18  2  0
 19 20  1  0
 20 21  2  0
 21 22  1  0
 23 22  2  0
  3 24  1  0
  5 25  1  0
  7 26  1  0
  8 27  1  0
  9 28  1  0
 11 29  1  0
 13 30  1  0
 14 31  1  0
 19 32  1  0
 20 33  1  0
 21 34  1  0
 22 35  1  0
 23 36  1  0
M  ISO  8  24  14  25  14  26   9  27  14  28  14  29  14  30  14  31  14
M  ISO  5  32  14  33  14  34  14  35  14  36  14
M  END
>  <minimizedAffinity>  (1) 
-6.6754508

>  <minimizedRMSD>  (1) 
0.532338738

$$$$
