
     RDKit          3D

 42 45  0  0  0  0  0  0  0  0999 V2000
   47.6010   34.8790   42.2730 C   0  0  0  0  0  0  0  0  0  0  0  0
   48.7550   35.3950   42.3700 O   0  0  0  0  0  0  0  0  0  0  0  0
   46.1550   33.6370   40.6230 C   0  0  0  0  0  0  0  0  0  0  0  0
   47.3260   34.3420   40.9380 C   0  0  0  0  0  0  0  0  0  0  0  0
   48.2460   34.5440   39.9430 C   0  0  0  0  0  0  0  0  0  0  0  0
   48.1040   34.0990   38.6360 C   0  0  0  0  0  0  0  0  0  0  0  0
   48.8560   34.1850   37.5250 N   0  0  0  0  0  0  0  0  0  0  0  0
   48.2330   33.5760   36.5190 C   0  0  0  0  0  0  0  0  0  0  0  0
   47.0330   33.0790   37.0000 C   0  0  0  0  0  0  0  0  0  0  0  0
   46.9370   33.4030   38.3410 C   0  0  0  0  0  0  0  0  0  0  0  0
   45.9940   33.1820   39.3140 C   0  0  0  0  0  0  0  0  0  0  0  0
   46.6190   34.7950   43.3130 C   0  0  0  0  0  0  0  0  0  0  0  0
   45.6140   35.7720   43.2850 C   0  0  0  0  0  0  0  0  0  0  0  0
   44.6510   35.6860   44.3080 C   0  0  0  0  0  0  0  0  0  0  0  0
   44.7530   34.6860   45.2370 N   0  0  0  0  0  0  0  0  0  0  0  0
   45.7480   33.7830   45.1980 C   0  0  0  0  0  0  0  0  0  0  0  0
   46.6820   33.8450   44.2290 N   0  0  0  0  0  0  0  0  0  0  0  0
   45.8490   32.6990   46.2130 C   0  0  0  0  0  0  0  0  0  0  0  0
   47.2520   32.3220   46.5620 C   0  0  0  0  0  0  0  0  0  0  0  0
   47.4660   32.1430   48.0440 C   0  0  0  0  0  0  0  0  0  0  0  0
   46.3390   31.4000   48.7220 C   0  0  0  0  0  0  0  0  0  0  0  0
   44.9830   31.9630   48.3570 C   0  0  0  0  0  0  0  0  0  0  0  0
   45.1240   33.1820   47.4720 C   0  0  0  0  0  0  0  0  0  0  0  0
   45.3856   33.4483   41.3862 H   0  0  0  0  0  0  0  0  0  0  0  0
   49.1616   35.0978   40.1979 H   0  0  0  0  0  0  0  0  0  0  0  0
   49.7727   34.6503   37.4621 H   0  0  0  0  0  0  0  0  0  0  0  0
   48.6052   33.4837   35.4880 H   0  0  0  0  0  0  0  0  0  0  0  0
   46.2852   32.5225   36.4160 H   0  0  0  0  0  0  0  0  0  0  0  0
   45.0807   32.6275   39.0527 H   0  0  0  0  0  0  0  0  0  0  0  0
   45.5802   36.5552   42.5134 H   0  0  0  0  0  0  0  0  0  0  0  0
   43.8272   36.4130   44.3602 H   0  0  0  0  0  0  0  0  0  0  0  0
   45.3941   31.7935   45.7851 H   0  0  0  0  0  0  0  0  0  0  0  0
   47.4963   31.3761   46.0564 H   0  0  0  0  0  0  0  0  0  0  0  0
   47.9038   33.1451   46.2339 H   0  0  0  0  0  0  0  0  0  0  0  0
   48.3983   31.5796   48.1972 H   0  0  0  0  0  0  0  0  0  0  0  0
   47.5119   33.1468   48.4915 H   0  0  0  0  0  0  0  0  0  0  0  0
   46.3776   30.3436   48.4179 H   0  0  0  0  0  0  0  0  0  0  0  0
   46.4685   31.5084   49.8090 H   0  0  0  0  0  0  0  0  0  0  0  0
   44.4063   31.1943   47.8217 H   0  0  0  0  0  0  0  0  0  0  0  0
   44.4651   32.2583   49.2814 H   0  0  0  0  0  0  0  0  0  0  0  0
   45.7143   33.9586   47.9803 H   0  0  0  0  0  0  0  0  0  0  0  0
   44.1460   33.6248   47.2324 H   0  0  0  0  0  0  0  0  0  0  0  0
  1  2  2  0
  1 12  1  0
  3  4  2  0
  4  1  1  0
  5  4  1  0
  6  5  2  0
  7  6  1  0
  8  9  2  0
  8  7  1  0
  9 10  1  0
 10  6  1  0
 10 11  2  0
 11  3  1  0
 12 17  1  0
 13 12  2  0
 13 14  1  0
 14 15  2  0
 16 15  1  0
 16 18  1  0
 17 16  2  0
 18 19  1  0
 18 23  1  0
 19 20  1  0
 20 21  1  0
 22 21  1  0
 23 22  1  0
  3 24  1  0
  5 25  1  0
  7 26  1  0
  8 27  1  0
  9 28  1  0
 11 29  1  0
 13 30  1  0
 14 31  1  0
 18 32  1  0
 19 33  1  0
 19 34  1  0
 20 35  1  0
 20 36  1  0
 21 37  1  0
 21 38  1  0
 22 39  1  0
 22 40  1  0
 23 41  1  0
 23 42  1  0
M  ISO  8  24  14  25  14  26   9  27  14  28  14  29  14  30  14  31  14
M  ISO  8  32  13  33  13  34  13  35  13  36  13  37  13  38  13  39  13
M  ISO  3  40  13  41  13  42  13
M  END
>  <minimizedAffinity>  (1) 
-6.62512255

>  <minimizedRMSD>  (1) 
0.638967693

$$$$
