
     RDKit          3D

 36 39  0  0  0  0  0  0  0  0999 V2000
   47.6570   35.1000   41.8040 C   0  0  0  0  0  0  0  0  0  0  0  0
   48.6840   35.8310   41.8280 O   0  0  0  0  0  0  0  0  0  0  0  0
   46.3170   33.6930   40.1990 C   0  0  0  0  0  0  0  0  0  0  0  0
   47.4530   34.4420   40.5060 C   0  0  0  0  0  0  0  0  0  0  0  0
   48.4160   34.5700   39.5400 C   0  0  0  0  0  0  0  0  0  0  0  0
   48.3420   34.0030   38.2700 C   0  0  0  0  0  0  0  0  0  0  0  0
   49.1530   34.0040   37.1970 N   0  0  0  0  0  0  0  0  0  0  0  0
   48.5860   33.2920   36.2240 C   0  0  0  0  0  0  0  0  0  0  0  0
   47.3630   32.8130   36.6930 C   0  0  0  0  0  0  0  0  0  0  0  0
   47.2010   33.2620   37.9940 C   0  0  0  0  0  0  0  0  0  0  0  0
   46.2210   33.1150   38.9330 C   0  0  0  0  0  0  0  0  0  0  0  0
   46.7430   34.8830   42.8800 C   0  0  0  0  0  0  0  0  0  0  0  0
   45.6490   35.7560   42.9360 C   0  0  0  0  0  0  0  0  0  0  0  0
   44.7370   35.5570   43.9900 C   0  0  0  0  0  0  0  0  0  0  0  0
   44.9730   34.5500   44.8700 N   0  0  0  0  0  0  0  0  0  0  0  0
   46.0370   33.7470   44.7650 C   0  0  0  0  0  0  0  0  0  0  0  0
   46.9280   33.9170   43.7610 N   0  0  0  0  0  0  0  0  0  0  0  0
   44.6730   33.9660   47.4440 Cl  0  0  0  0  0  0  0  0  0  0  0  0
   45.7370   32.6530   46.9700 C   0  0  0  0  0  0  0  0  0  0  0  0
   46.3180   32.6510   45.7010 C   0  0  0  0  0  0  0  0  0  0  0  0
   47.1400   31.5910   45.3970 C   0  0  0  0  0  0  0  0  0  0  0  0
   47.3650   30.5890   46.3190 C   0  0  0  0  0  0  0  0  0  0  0  0
   46.7880   30.5960   47.5720 C   0  0  0  0  0  0  0  0  0  0  0  0
   45.9480   31.6640   47.9050 C   0  0  0  0  0  0  0  0  0  0  0  0
   45.5141   33.5610   40.9393 H   0  0  0  0  0  0  0  0  0  0  0  0
   49.3103   35.1620   39.7845 H   0  0  0  0  0  0  0  0  0  0  0  0
   50.0652   34.4786   37.1372 H   0  0  0  0  0  0  0  0  0  0  0  0
   49.0090   33.1131   35.2245 H   0  0  0  0  0  0  0  0  0  0  0  0
   46.6529   32.1894   36.1301 H   0  0  0  0  0  0  0  0  0  0  0  0
   45.3283   32.5226   38.6837 H   0  0  0  0  0  0  0  0  0  0  0  0
   45.5095   36.5563   42.1943 H   0  0  0  0  0  0  0  0  0  0  0  0
   43.8531   36.2028   44.0982 H   0  0  0  0  0  0  0  0  0  0  0  0
   47.6226   31.5414   44.4098 H   0  0  0  0  0  0  0  0  0  0  0  0
   48.0280   29.7551   46.0450 H   0  0  0  0  0  0  0  0  0  0  0  0
   46.9829   29.7848   48.2890 H   0  0  0  0  0  0  0  0  0  0  0  0
   45.4662   31.7128   48.8927 H   0  0  0  0  0  0  0  0  0  0  0  0
  1  2  2  0
  1 12  1  0
  3  4  2  0
  4  1  1  0
  5  4  1  0
  6  5  2  0
  7  6  1  0
  8  9  2  0
  8  7  1  0
  9 10  1  0
 10  6  1  0
 10 11  2  0
 11  3  1  0
 12 13  2  0
 12 17  1  0
 13 14  1  0
 14 15  2  0
 16 15  1  0
 16 20  1  0
 17 16  2  0
 19 18  1  0
 19 24  2  0
 20 19  1  0
 21 20  2  0
 21 22  1  0
 22 23  2  0
 23 24  1  0
  3 25  1  0
  5 26  1  0
  7 27  1  0
  8 28  1  0
  9 29  1  0
 11 30  1  0
 13 31  1  0
 14 32  1  0
 21 33  1  0
 22 34  1  0
 23 35  1  0
 24 36  1  0
M  ISO  8  25  14  26  14  27   9  28  14  29  14  30  14  31  14  32  14
M  ISO  4  33  14  34  14  35  14  36  14
M  END
>  <minimizedAffinity>  (1) 
-6.6115942

>  <minimizedRMSD>  (1) 
0.298389882

$$$$
