
     RDKit          3D

 35 38  0  0  0  0  0  0  0  0999 V2000
   47.6170   35.0790   42.0460 C   0  0  0  0  0  0  0  0  0  0  0  0
   48.7140   35.6840   42.0970 O   0  0  0  0  0  0  0  0  0  0  0  0
   46.2060   33.6990   40.4470 C   0  0  0  0  0  0  0  0  0  0  0  0
   47.3570   34.4480   40.7320 C   0  0  0  0  0  0  0  0  0  0  0  0
   48.2940   34.6080   39.7380 C   0  0  0  0  0  0  0  0  0  0  0  0
   48.1810   34.0760   38.4610 C   0  0  0  0  0  0  0  0  0  0  0  0
   48.9600   34.1100   37.3690 N   0  0  0  0  0  0  0  0  0  0  0  0
   48.3580   33.4150   36.3910 C   0  0  0  0  0  0  0  0  0  0  0  0
   47.1560   32.9220   36.8840 C   0  0  0  0  0  0  0  0  0  0  0  0
   47.0410   33.3400   38.2000 C   0  0  0  0  0  0  0  0  0  0  0  0
   46.0850   33.1630   39.1740 C   0  0  0  0  0  0  0  0  0  0  0  0
   46.6550   34.9570   43.0950 C   0  0  0  0  0  0  0  0  0  0  0  0
   45.5680   35.8370   43.0190 C   0  0  0  0  0  0  0  0  0  0  0  0
   44.6120   35.7170   44.0590 C   0  0  0  0  0  0  0  0  0  0  0  0
   44.7990   34.7850   45.0400 N   0  0  0  0  0  0  0  0  0  0  0  0
   45.8700   33.9780   45.0410 C   0  0  0  0  0  0  0  0  0  0  0  0
   46.7820   34.0770   44.0690 N   0  0  0  0  0  0  0  0  0  0  0  0
   46.0870   32.9710   46.0870 C   0  0  0  0  0  0  0  0  0  0  0  0
   45.3360   33.0050   47.2590 C   0  0  0  0  0  0  0  0  0  0  0  0
   45.5050   32.0730   48.2790 C   0  0  0  0  0  0  0  0  0  0  0  0
   46.4670   31.1090   48.0540 C   0  0  0  0  0  0  0  0  0  0  0  0
   47.2250   31.0540   46.9020 C   0  0  0  0  0  0  0  0  0  0  0  0
   47.0210   31.9840   45.9410 N   0  0  0  0  0  0  0  0  0  0  0  0
   45.4264   33.5422   41.2070 H   0  0  0  0  0  0  0  0  0  0  0  0
   49.1933   35.1971   39.9707 H   0  0  0  0  0  0  0  0  0  0  0  0
   49.8685   34.5895   37.2937 H   0  0  0  0  0  0  0  0  0  0  0  0
   48.7489   33.2621   35.3743 H   0  0  0  0  0  0  0  0  0  0  0  0
   46.4281   32.3109   36.3302 H   0  0  0  0  0  0  0  0  0  0  0  0
   45.1888   32.5725   38.9329 H   0  0  0  0  0  0  0  0  0  0  0  0
   45.4631   36.5717   42.2071 H   0  0  0  0  0  0  0  0  0  0  0  0
   43.7265   36.3694   44.0758 H   0  0  0  0  0  0  0  0  0  0  0  0
   44.5823   33.7965   47.3833 H   0  0  0  0  0  0  0  0  0  0  0  0
   44.9106   32.1028   49.2041 H   0  0  0  0  0  0  0  0  0  0  0  0
   46.6376   30.3483   48.8300 H   0  0  0  0  0  0  0  0  0  0  0  0
   47.9821   30.2674   46.7675 H   0  0  0  0  0  0  0  0  0  0  0  0
  1  2  2  0
  1 12  1  0
  3  4  2  0
  4  1  1  0
  5  4  1  0
  6  5  2  0
  7  6  1  0
  8  9  2  0
  8  7  1  0
  9 10  1  0
 10  6  1  0
 10 11  2  0
 11  3  1  0
 12 17  1  0
 13 12  2  0
 13 14  1  0
 14 15  2  0
 15 16  1  0
 16 18  1  0
 17 16  2  0
 18 19  2  0
 19 20  1  0
 21 20  2  0
 22 21  1  0
 23 18  1  0
 23 22  2  0
  3 24  1  0
  5 25  1  0
  7 26  1  0
  8 27  1  0
  9 28  1  0
 11 29  1  0
 13 30  1  0
 14 31  1  0
 19 32  1  0
 20 33  1  0
 21 34  1  0
 22 35  1  0
M  ISO  8  24  14  25  14  26   9  27  14  28  14  29  14  30  14  31  14
M  ISO  4  32  14  33  14  34  14  35  14
M  END
>  <minimizedAffinity>  (1) 
-6.57125473

>  <minimizedRMSD>  (1) 
0.662364364

$$$$
