
     RDKit          3D

 37 40  0  0  1  0  0  0  0  0999 V2000
   46.2100   33.6860   40.4510 C   0  0  0  0  0  0  0  0  0  0  0  0
   47.3610   34.4240   40.7580 C   0  0  0  0  0  0  0  0  0  0  0  0
   48.3040   34.5920   39.7790 C   0  0  0  0  0  0  0  0  0  0  0  0
   48.1950   34.0750   38.4890 C   0  0  0  0  0  0  0  0  0  0  0  0
   48.9770   34.1220   37.4040 N   0  0  0  0  0  0  0  0  0  0  0  0
   48.3900   33.4520   36.4100 C   0  0  0  0  0  0  0  0  0  0  0  0
   47.1880   32.9610   36.8840 C   0  0  0  0  0  0  0  0  0  0  0  0
   47.0550   33.3530   38.2100 C   0  0  0  0  0  0  0  0  0  0  0  0
   46.0890   33.1630   39.1640 C   0  0  0  0  0  0  0  0  0  0  0  0
   47.5870   35.0310   42.0750 C   0  0  0  0  0  0  0  0  0  0  0  0
   48.4720   35.9370   42.0500 O   0  0  0  0  0  0  0  0  0  0  0  0
   46.8500   34.5920   43.2230 C   0  0  0  0  0  0  0  0  0  0  0  0
   45.6640   35.2920   43.4870 C   0  0  0  0  0  0  0  0  0  0  0  0
   44.9360   34.8690   44.6080 C   0  0  0  0  0  0  0  0  0  0  0  0
   45.4240   33.8200   45.3560 N   0  0  0  0  0  0  0  0  0  0  0  0
   46.5700   33.1980   45.0400 C   0  0  0  0  0  0  0  0  0  0  0  0
   47.2860   33.5900   43.9640 N   0  0  0  0  0  0  0  0  0  0  0  0
   46.9680   32.0850   45.9410 C   0  0  0  0  0  0  0  0  0  0  0  0
   45.9730   30.9620   45.9820 C   0  0  0  0  0  0  0  0  0  0  0  0
   45.3360   30.9500   47.3530 C   0  0  0  0  0  0  0  0  0  0  0  0
   46.0870   31.9130   48.2080 C   0  0  0  0  0  0  0  0  0  0  0  0
   47.1240   32.5870   47.3570 C   0  0  0  0  0  0  0  0  0  0  0  0
   45.4244   33.5239   41.2037 H   0  0  0  0  0  0  0  0  0  0  0  0
   49.2052   35.1721   40.0265 H   0  0  0  0  0  0  0  0  0  0  0  0
   49.8877   34.5996   37.3453 H   0  0  0  0  0  0  0  0  0  0  0  0
   48.7911   33.3150   35.3949 H   0  0  0  0  0  0  0  0  0  0  0  0
   46.4632   32.3640   36.3111 H   0  0  0  0  0  0  0  0  0  0  0  0
   45.1919   32.5808   38.9066 H   0  0  0  0  0  0  0  0  0  0  0  0
   45.3249   36.1238   42.8521 H   0  0  0  0  0  0  0  0  0  0  0  0
   43.9939   35.3648   44.8848 H   0  0  0  0  0  0  0  0  0  0  0  0
   47.9148   31.7039   45.5307 H   0  0  0  0  0  0  0  0  0  0  0  0
   45.2016   31.1188   45.2136 H   0  0  0  0  0  0  0  0  0  0  0  0
   46.4728   30.0021   45.7852 H   0  0  0  0  0  0  0  0  0  0  0  0
   44.4743   30.3409   47.6635 H   0  0  0  0  0  0  0  0  0  0  0  0
   45.9116   32.0979   49.2781 H   0  0  0  0  0  0  0  0  0  0  0  0
   48.1293   32.3424   47.7306 H   0  0  0  0  0  0  0  0  0  0  0  0
   46.9936   33.6787   47.3907 H   0  0  0  0  0  0  0  0  0  0  0  0
  1  2  2  0
  2 10  1  0
  3  2  1  0
  4  3  2  0
  5  4  1  0
  6  7  2  0
  6  5  1  0
  7  8  1  0
  8  4  1  0
  8  9  2  0
  9  1  1  0
 10 12  1  0
 11 10  2  0
 12 13  2  0
 12 17  1  0
 13 14  1  0
 14 15  2  0
 16 15  1  0
 17 16  2  0
 18 16  1  0
 18 19  1  0
 18 22  1  0
 19 20  1  0
 20 21  2  0
 22 21  1  0
  1 23  1  0
  3 24  1  0
  5 25  1  0
  6 26  1  0
  7 27  1  0
  9 28  1  0
 13 29  1  0
 14 30  1  0
 18 31  1  0
 19 32  1  0
 19 33  1  0
 20 34  1  0
 21 35  1  0
 22 36  1  0
 22 37  1  0
M  ISO  8  23  14  24  14  25   9  26  14  27  14  28  14  29  14  30  14
M  ISO  7  31  13  32  13  33  13  34  13  35  13  36  13  37  13
M  END
>  <minimizedAffinity>  (1) 
-6.23014069

>  <minimizedRMSD>  (1) 
0.638691843

$$$$
