
     RDKit          3D

 28 30  0  0  0  0  0  0  0  0999 V2000
   46.3240   33.6900   40.1930 C   0  0  0  0  0  0  0  0  0  0  0  0
   47.4670   34.4340   40.4880 C   0  0  0  0  0  0  0  0  0  0  0  0
   48.4250   34.5560   39.5150 C   0  0  0  0  0  0  0  0  0  0  0  0
   48.3430   33.9890   38.2480 C   0  0  0  0  0  0  0  0  0  0  0  0
   49.1430   33.9850   37.1680 N   0  0  0  0  0  0  0  0  0  0  0  0
   48.5670   33.2760   36.1990 C   0  0  0  0  0  0  0  0  0  0  0  0
   47.3400   32.8020   36.6790 C   0  0  0  0  0  0  0  0  0  0  0  0
   47.1980   33.2540   37.9770 C   0  0  0  0  0  0  0  0  0  0  0  0
   46.2180   33.1110   38.9270 C   0  0  0  0  0  0  0  0  0  0  0  0
   47.6900   35.0960   41.7760 C   0  0  0  0  0  0  0  0  0  0  0  0
   48.7000   35.8580   41.7790 O   0  0  0  0  0  0  0  0  0  0  0  0
   46.8040   34.8560   42.8770 C   0  0  0  0  0  0  0  0  0  0  0  0
   45.6650   35.6730   42.9390 C   0  0  0  0  0  0  0  0  0  0  0  0
   44.7960   35.4380   44.0190 C   0  0  0  0  0  0  0  0  0  0  0  0
   45.1020   34.4600   44.9140 N   0  0  0  0  0  0  0  0  0  0  0  0
   46.2170   33.7100   44.7940 C   0  0  0  0  0  0  0  0  0  0  0  0
   47.0670   33.9160   43.7680 N   0  0  0  0  0  0  0  0  0  0  0  0
   46.5500   32.6930   45.7130 N   0  0  0  0  0  0  0  0  0  0  0  0
   45.5261   33.5628   40.9395 H   0  0  0  0  0  0  0  0  0  0  0  0
   49.3230   35.1447   39.7537 H   0  0  0  0  0  0  0  0  0  0  0  0
   50.0567   34.4557   37.1005 H   0  0  0  0  0  0  0  0  0  0  0  0
   48.9825   33.0945   35.1968 H   0  0  0  0  0  0  0  0  0  0  0  0
   46.6202   32.1826   36.1239 H   0  0  0  0  0  0  0  0  0  0  0  0
   45.3214   32.5221   38.6835 H   0  0  0  0  0  0  0  0  0  0  0  0
   45.4640   36.4508   42.1876 H   0  0  0  0  0  0  0  0  0  0  0  0
   43.8811   36.0368   44.1388 H   0  0  0  0  0  0  0  0  0  0  0  0
   47.4117   32.1439   45.5835 H   0  0  0  0  0  0  0  0  0  0  0  0
   45.9314   32.4995   46.5135 H   0  0  0  0  0  0  0  0  0  0  0  0
  1  2  2  0
  2 10  1  0
  3  2  1  0
  4  3  2  0
  5  4  1  0
  6  7  2  0
  6  5  1  0
  7  8  1  0
  8  4  1  0
  8  9  2  0
  9  1  1  0
 10 11  2  0
 10 12  1  0
 12 13  2  0
 12 17  1  0
 13 14  1  0
 14 15  2  0
 16 15  1  0
 16 18  1  0
 17 16  2  0
  1 19  1  0
  3 20  1  0
  5 21  1  0
  6 22  1  0
  7 23  1  0
  9 24  1  0
 13 25  1  0
 14 26  1  0
 18 27  1  0
 18 28  1  0
M  ISO  8  19  14  20  14  21   9  22  14  23  14  24  14  25  14  26  14
M  END
>  <minimizedAffinity>  (1) 
-5.54131889

>  <minimizedRMSD>  (1) 
0.0285309888

$$$$
