
     RDKit          3D

 15 15  0  0  0  0  0  0  0  0999 V2000
   45.5340   34.0300   45.5770 C   0  0  0  0  0  0  0  0  0  0  0  0
   46.2420   33.8990   44.3610 C   0  0  0  0  0  0  0  0  0  0  0  0
   47.0840   32.7870   44.2360 C   0  0  0  0  0  0  0  0  0  0  0  0
   47.1680   31.9090   45.2790 N   0  0  0  0  0  0  0  0  0  0  0  0
   46.4710   32.0830   46.4110 C   0  0  0  0  0  0  0  0  0  0  0  0
   45.6600   33.1310   46.5650 N   0  0  0  0  0  0  0  0  0  0  0  0
   44.7190   35.1160   45.6860 O   0  0  0  0  0  0  0  0  0  0  0  0
   44.3890   35.9580   44.6320 C   0  0  0  0  0  0  0  0  0  0  0  0
   45.0190   37.0240   44.3160 O   0  0  0  0  0  0  0  0  0  0  0  0
   43.2910   35.7400   43.7540 N   0  0  0  0  0  0  0  0  0  0  0  0
   46.1367   34.6357   43.5509 H   0  0  0  0  0  0  0  0  0  0  0  0
   47.6658   32.6240   43.3168 H   0  0  0  0  0  0  0  0  0  0  0  0
   46.5694   31.3502   47.2255 H   0  0  0  0  0  0  0  0  0  0  0  0
   43.1019   36.4053   42.9908 H   0  0  0  0  0  0  0  0  0  0  0  0
   42.6852   34.9168   43.8815 H   0  0  0  0  0  0  0  0  0  0  0  0
  1  7  1  0
  1  6  2  0
  2  1  1  0
  3  2  2  0
  3  4  1  0
  4  5  2  0
  5  6  1  0
  8  7  1  0
  9  8  2  0
 10  8  1  0
  2 11  1  0
  3 12  1  0
  5 13  1  0
 10 14  1  0
 10 15  1  0
M  ISO  3  11  14  12  14  13  14
M  END
>  <minimizedAffinity>  (1) 
-3.67535019

>  <minimizedRMSD>  (1) 
2.24218416

$$$$
