
     RDKit          3D

 27 28  0  0  0  0  0  0  0  0999 V2000
   45.6070   34.2420   45.1510 C   0  0  0  0  0  0  0  0  0  0  0  0
   46.4820   33.9850   44.0850 C   0  0  0  0  0  0  0  0  0  0  0  0
   47.2530   32.8200   44.1900 C   0  0  0  0  0  0  0  0  0  0  0  0
   47.1150   32.0260   45.2820 N   0  0  0  0  0  0  0  0  0  0  0  0
   46.2510   32.3320   46.2730 C   0  0  0  0  0  0  0  0  0  0  0  0
   45.5020   33.4240   46.2200 N   0  0  0  0  0  0  0  0  0  0  0  0
   46.1190   31.4890   47.4110 N   0  0  0  0  0  0  0  0  0  0  0  0
   45.4530   30.2040   47.5290 C   0  0  0  0  0  0  0  0  0  0  0  0
   45.0580   30.0670   48.9830 C   0  0  0  0  0  0  0  0  0  0  0  0
   45.3700   31.4560   49.5580 C   0  0  0  0  0  0  0  0  0  0  0  0
   46.6440   31.7450   48.7570 C   0  0  0  0  0  0  0  0  0  0  0  0
   44.8480   35.3810   45.0580 O   0  0  0  0  0  0  0  0  0  0  0  0
   44.4990   35.9890   43.8550 C   0  0  0  0  0  0  0  0  0  0  0  0
   45.1430   36.9170   43.2780 O   0  0  0  0  0  0  0  0  0  0  0  0
   43.3330   35.6200   43.1150 N   0  0  0  0  0  0  0  0  0  0  0  0
   46.5582   34.6581   43.2183 H   0  0  0  0  0  0  0  0  0  0  0  0
   47.9637   32.5513   43.3946 H   0  0  0  0  0  0  0  0  0  0  0  0
   44.5603   30.1765   46.8868 H   0  0  0  0  0  0  0  0  0  0  0  0
   46.1101   29.3807   47.2122 H   0  0  0  0  0  0  0  0  0  0  0  0
   43.9885   29.8295   49.0814 H   0  0  0  0  0  0  0  0  0  0  0  0
   45.5878   29.2542   49.5014 H   0  0  0  0  0  0  0  0  0  0  0  0
   44.5718   32.1825   49.3456 H   0  0  0  0  0  0  0  0  0  0  0  0
   45.4678   31.5118   50.6522 H   0  0  0  0  0  0  0  0  0  0  0  0
   47.4629   31.0591   49.0196 H   0  0  0  0  0  0  0  0  0  0  0  0
   47.0914   32.7376   48.9139 H   0  0  0  0  0  0  0  0  0  0  0  0
   43.1131   36.0968   42.2289 H   0  0  0  0  0  0  0  0  0  0  0  0
   42.7127   34.8773   43.4679 H   0  0  0  0  0  0  0  0  0  0  0  0
  1  6  2  0
  2  3  2  0
  2  1  1  0
  3  4  1  0
  4  5  2  0
  5  7  1  0
  6  5  1  0
  7  8  1  0
  7 11  1  0
  8  9  1  0
  9 10  1  0
 11 10  1  0
 12  1  1  0
 13 12  1  0
 14 13  2  0
 15 13  1  0
  2 16  1  0
  3 17  1  0
  8 18  1  0
  8 19  1  0
  9 20  1  0
  9 21  1  0
 10 22  1  0
 10 23  1  0
 11 24  1  0
 11 25  1  0
 15 26  1  0
 15 27  1  0
M  ISO  8  16  14  17  14  18  13  19  13  20  13  21  13  22  13  23  13
M  ISO  2  24  13  25  13
M  END
>  <minimizedAffinity>  (1) 
-5.24118996

>  <minimizedRMSD>  (1) 
0.658736944

$$$$
