
     RDKit          3D

 29 30  0  0  0  0  0  0  0  0999 V2000
   45.6650   34.3290   44.9210 C   0  0  0  0  0  0  0  0  0  0  0  0
   46.4840   34.1090   43.7950 C   0  0  0  0  0  0  0  0  0  0  0  0
   47.2790   32.9660   43.8240 C   0  0  0  0  0  0  0  0  0  0  0  0
   47.2230   32.1420   44.9120 N   0  0  0  0  0  0  0  0  0  0  0  0
   46.4250   32.4050   45.9490 C   0  0  0  0  0  0  0  0  0  0  0  0
   45.6450   33.4910   45.9620 N   0  0  0  0  0  0  0  0  0  0  0  0
   46.4130   31.5060   47.0520 N   0  0  0  0  0  0  0  0  0  0  0  0
   47.4210   30.5110   47.2580 C   0  0  0  0  0  0  0  0  0  0  0  0
   47.9490   30.5040   48.6790 C   0  0  0  0  0  0  0  0  0  0  0  0
   46.9360   30.8390   49.6440 N   0  0  0  0  0  0  0  0  0  0  0  0
   45.5970   30.5800   49.1380 C   0  0  0  0  0  0  0  0  0  0  0  0
   45.3440   31.5680   48.0400 C   0  0  0  0  0  0  0  0  0  0  0  0
   44.8870   35.4600   44.8770 O   0  0  0  0  0  0  0  0  0  0  0  0
   44.4900   36.1050   43.7220 C   0  0  0  0  0  0  0  0  0  0  0  0
   45.1000   37.0810   43.1770 O   0  0  0  0  0  0  0  0  0  0  0  0
   43.3260   35.7370   42.9990 N   0  0  0  0  0  0  0  0  0  0  0  0
   46.4946   34.8018   42.9407 H   0  0  0  0  0  0  0  0  0  0  0  0
   47.9443   32.7295   42.9806 H   0  0  0  0  0  0  0  0  0  0  0  0
   46.9915   29.5228   47.0365 H   0  0  0  0  0  0  0  0  0  0  0  0
   48.2630   30.7454   46.5901 H   0  0  0  0  0  0  0  0  0  0  0  0
   48.3352   29.4996   48.9070 H   0  0  0  0  0  0  0  0  0  0  0  0
   48.7397   31.2658   48.7459 H   0  0  0  0  0  0  0  0  0  0  0  0
   47.0858   30.2755   50.4931 H   0  0  0  0  0  0  0  0  0  0  0  0
   45.5335   29.5545   48.7452 H   0  0  0  0  0  0  0  0  0  0  0  0
   44.8488   30.6824   49.9378 H   0  0  0  0  0  0  0  0  0  0  0  0
   45.3009   32.5814   48.4657 H   0  0  0  0  0  0  0  0  0  0  0  0
   44.3888   31.3253   47.5514 H   0  0  0  0  0  0  0  0  0  0  0  0
   43.0692   36.2474   42.1420 H   0  0  0  0  0  0  0  0  0  0  0  0
   42.7378   34.9594   43.3311 H   0  0  0  0  0  0  0  0  0  0  0  0
  1  6  2  0
  2  3  2  0
  2  1  1  0
  3  4  1  0
  4  5  2  0
  5  6  1  0
  5  7  1  0
  7  8  1  0
  7 12  1  0
  8  9  1  0
  9 10  1  0
 11 10  1  0
 12 11  1  0
 13  1  1  0
 14 13  1  0
 15 14  2  0
 16 14  1  0
  2 17  1  0
  3 18  1  0
  8 19  1  0
  8 20  1  0
  9 21  1  0
  9 22  1  0
 10 23  1  0
 11 24  1  0
 11 25  1  0
 12 26  1  0
 12 27  1  0
 16 28  1  0
 16 29  1  0
M  ISO  8  17  14  18  14  19  13  20  13  21  13  22  13  23   5  24  13
M  ISO  3  25  13  26  13  27  13
M  END
>  <minimizedAffinity>  (1) 
-5.17315054

>  <minimizedRMSD>  (1) 
0.727938592

$$$$
