
     RDKit          3D

 21 21  0  0  0  0  0  0  0  0999 V2000
   45.4810   33.9690   45.2910 C   0  0  0  0  0  0  0  0  0  0  0  0
   45.5400   33.2270   44.1020 C   0  0  0  0  0  0  0  0  0  0  0  0
   46.3300   32.0640   44.1380 C   0  0  0  0  0  0  0  0  0  0  0  0
   46.9730   31.7300   45.2860 N   0  0  0  0  0  0  0  0  0  0  0  0
   46.8810   32.4760   46.3930 C   0  0  0  0  0  0  0  0  0  0  0  0
   46.1360   33.5870   46.3850 N   0  0  0  0  0  0  0  0  0  0  0  0
   44.7140   35.0960   45.2500 O   0  0  0  0  0  0  0  0  0  0  0  0
   44.3980   35.7930   44.0990 C   0  0  0  0  0  0  0  0  0  0  0  0
   45.1930   36.6290   43.5300 O   0  0  0  0  0  0  0  0  0  0  0  0
   43.1800   35.6920   43.3880 N   0  0  0  0  0  0  0  0  0  0  0  0
   47.5030   32.2050   47.6000 O   0  0  0  0  0  0  0  0  0  0  0  0
   45.9440   30.1150   48.0800 O   0  0  0  0  0  0  0  0  0  0  0  0
   46.7140   31.2240   48.7470 P   0  0  0  0  0  0  0  0  0  0  0  0
   47.8670   30.5520   49.7810 O   0  0  0  0  0  0  0  0  0  0  0  0
   45.6640   32.1830   49.6670 O   0  0  0  0  0  0  0  0  0  0  0  0
   45.0002   33.5365   43.1949 H   0  0  0  0  0  0  0  0  0  0  0  0
   46.4260   31.4306   43.2438 H   0  0  0  0  0  0  0  0  0  0  0  0
   43.0327   36.2525   42.5365 H   0  0  0  0  0  0  0  0  0  0  0  0
   42.4400   35.0579   43.7215 H   0  0  0  0  0  0  0  0  0  0  0  0
   47.5985   30.7085   50.7209 H   0  0  0  0  0  0  0  0  0  0  0  0
   45.8338   32.0279   50.6299 H   0  0  0  0  0  0  0  0  0  0  0  0
  1  6  2  0
  2  3  2  0
  2  1  1  0
  3  4  1  0
  4  5  2  0
  5 11  1  0
  6  5  1  0
  7  1  1  0
  8  7  1  0
  9  8  2  0
 10  8  1  0
 11 13  1  0
 12 13  2  0
 13 15  1  0
 13 14  1  0
  2 16  1  0
  3 17  1  0
 10 18  1  0
 10 19  1  0
 14 20  1  0
 15 21  1  0
M  ISO  4  16  14  17  14  20   3  21   3
M  END
>  <minimizedAffinity>  (1) 
-5.12413597

>  <minimizedRMSD>  (1) 
1.64802372

$$$$
