
     RDKit          3D

 17 17  0  0  0  0  0  0  0  0999 V2000
   45.4170   34.1340   45.6450 C   0  0  0  0  0  0  0  0  0  0  0  0
   46.2210   33.7590   44.5590 C   0  0  0  0  0  0  0  0  0  0  0  0
   47.0030   32.6040   44.7220 C   0  0  0  0  0  0  0  0  0  0  0  0
   46.9410   31.9250   45.8940 N   0  0  0  0  0  0  0  0  0  0  0  0
   46.1480   32.3360   46.9000 C   0  0  0  0  0  0  0  0  0  0  0  0
   45.3940   33.4300   46.7760 N   0  0  0  0  0  0  0  0  0  0  0  0
   46.0600   31.6270   48.1710 C   0  0  0  0  0  0  0  0  0  0  0  0
   45.7580   32.1830   49.2680 O   0  0  0  0  0  0  0  0  0  0  0  0
   44.6670   35.2630   45.4580 O   0  0  0  0  0  0  0  0  0  0  0  0
   44.4390   35.8800   44.2470 C   0  0  0  0  0  0  0  0  0  0  0  0
   45.1480   36.8160   43.7650 O   0  0  0  0  0  0  0  0  0  0  0  0
   43.3700   35.5370   43.3850 N   0  0  0  0  0  0  0  0  0  0  0  0
   46.2383   34.3408   43.6256 H   0  0  0  0  0  0  0  0  0  0  0  0
   47.6572   32.2547   43.9096 H   0  0  0  0  0  0  0  0  0  0  0  0
   46.2679   30.5468   48.1774 H   0  0  0  0  0  0  0  0  0  0  0  0
   43.2496   36.0339   42.4909 H   0  0  0  0  0  0  0  0  0  0  0  0
   42.7125   34.7905   43.6519 H   0  0  0  0  0  0  0  0  0  0  0  0
  1  6  2  0
  2  3  2  0
  2  1  1  0
  3  4  1  0
  4  5  2  0
  5  7  1  0
  6  5  1  0
  7  8  2  0
  9  1  1  0
 10  9  1  0
 11 10  2  0
 12 10  1  0
  2 13  1  0
  3 14  1  0
  7 15  1  0
 12 16  1  0
 12 17  1  0
M  ISO  3  13  14  14  14  15   6
M  END
>  <minimizedAffinity>  (1) 
-4.08922243

>  <minimizedRMSD>  (1) 
0.771229863

$$$$
