
     RDKit          3D

 17 17  0  0  0  0  0  0  0  0999 V2000
   45.5200   34.0290   45.6040 C   0  0  0  0  0  0  0  0  0  0  0  0
   46.2460   33.8930   44.4030 C   0  0  0  0  0  0  0  0  0  0  0  0
   47.0660   32.7680   44.3140 C   0  0  0  0  0  0  0  0  0  0  0  0
   47.1260   31.8870   45.3530 N   0  0  0  0  0  0  0  0  0  0  0  0
   46.4070   32.0790   46.4680 C   0  0  0  0  0  0  0  0  0  0  0  0
   45.6000   33.1440   46.6090 N   0  0  0  0  0  0  0  0  0  0  0  0
   46.4620   31.1650   47.5570 N   0  0  0  0  0  0  0  0  0  0  0  0
   44.7120   35.1330   45.6970 O   0  0  0  0  0  0  0  0  0  0  0  0
   44.3960   35.9610   44.6340 C   0  0  0  0  0  0  0  0  0  0  0  0
   45.0240   37.0130   44.2960 O   0  0  0  0  0  0  0  0  0  0  0  0
   43.3040   35.7370   43.7650 N   0  0  0  0  0  0  0  0  0  0  0  0
   46.1706   34.6276   43.5877 H   0  0  0  0  0  0  0  0  0  0  0  0
   47.6632   32.5919   43.4072 H   0  0  0  0  0  0  0  0  0  0  0  0
   45.8990   31.3366   48.4023 H   0  0  0  0  0  0  0  0  0  0  0  0
   47.0648   30.3318   47.5001 H   0  0  0  0  0  0  0  0  0  0  0  0
   43.1199   36.3903   42.9903 H   0  0  0  0  0  0  0  0  0  0  0  0
   42.6924   34.9204   43.9064 H   0  0  0  0  0  0  0  0  0  0  0  0
  1  8  1  0
  1  6  2  0
  2  1  1  0
  3  2  2  0
  3  4  1  0
  4  5  2  0
  5  6  1  0
  5  7  1  0
  9  8  1  0
 10  9  2  0
 11  9  1  0
  2 12  1  0
  3 13  1  0
  7 14  1  0
  7 15  1  0
 11 16  1  0
 11 17  1  0
M  ISO  2  12  14  13  14
M  END
>  <minimizedAffinity>  (1) 
-3.87264538

>  <minimizedRMSD>  (1) 
0.0648874193

$$$$
