
     RDKit          3D

 40 42  0  0  1  0  0  0  0  0999 V2000
   45.6400   34.3290   44.9720 C   0  0  0  0  0  0  0  0  0  0  0  0
   46.3790   34.0340   43.8180 C   0  0  0  0  0  0  0  0  0  0  0  0
   47.1750   32.8820   43.8480 C   0  0  0  0  0  0  0  0  0  0  0  0
   47.1790   32.1250   44.9930 N   0  0  0  0  0  0  0  0  0  0  0  0
   46.4500   32.4680   46.0520 C   0  0  0  0  0  0  0  0  0  0  0  0
   45.6860   33.5570   46.0540 N   0  0  0  0  0  0  0  0  0  0  0  0
   46.5250   31.5870   47.2080 N   0  0  0  0  0  0  0  0  0  0  0  0
   46.3310   32.1830   48.5050 C   0  0  0  0  0  0  0  0  0  0  0  0
   45.6460   31.2600   49.4170 C   0  0  0  0  0  0  0  0  0  0  0  0
   45.0470   30.0180   48.8390 C   0  0  0  0  0  0  0  0  0  0  0  0
   45.8850   29.3430   47.8170 C   0  0  0  0  0  0  0  0  0  0  0  0
   46.7750   30.1830   46.9870 C   0  0  2  0  0  0  0  0  0  0  0  0
   48.1530   30.7580   49.5450 Cl  0  0  0  0  0  0  0  0  0  0  0  0
   48.9830   30.0180   48.1680 C   0  0  0  0  0  0  0  0  0  0  0  0
   48.2050   29.8020   47.0220 C   0  0  0  0  0  0  0  0  0  0  0  0
   48.9320   29.2250   46.0030 C   0  0  0  0  0  0  0  0  0  0  0  0
   50.2650   28.8960   46.0980 C   0  0  0  0  0  0  0  0  0  0  0  0
   50.9530   29.1450   47.2680 C   0  0  0  0  0  0  0  0  0  0  0  0
   50.3130   29.7210   48.3450 C   0  0  0  0  0  0  0  0  0  0  0  0
   51.1260   30.0570   49.8390 Cl  0  0  0  0  0  0  0  0  0  0  0  0
   44.8810   35.4630   44.8900 O   0  0  0  0  0  0  0  0  0  0  0  0
   44.4820   36.0860   43.7220 C   0  0  0  0  0  0  0  0  0  0  0  0
   45.0980   37.0330   43.1630 O   0  0  0  0  0  0  0  0  0  0  0  0
   43.3220   35.7390   43.0020 N   0  0  0  0  0  0  0  0  0  0  0  0
   46.3357   34.6789   42.9280 H   0  0  0  0  0  0  0  0  0  0  0  0
   47.7809   32.5916   42.9771 H   0  0  0  0  0  0  0  0  0  0  0  0
   47.3114   32.4450   48.9295 H   0  0  0  0  0  0  0  0  0  0  0  0
   45.7070   33.0810   48.3854 H   0  0  0  0  0  0  0  0  0  0  0  0
   46.3777   30.9475   50.1766 H   0  0  0  0  0  0  0  0  0  0  0  0
   44.7843   31.8323   49.7912 H   0  0  0  0  0  0  0  0  0  0  0  0
   44.8706   29.3082   49.6606 H   0  0  0  0  0  0  0  0  0  0  0  0
   44.1231   30.3272   48.3283 H   0  0  0  0  0  0  0  0  0  0  0  0
   46.5192   28.6141   48.3428 H   0  0  0  0  0  0  0  0  0  0  0  0
   45.1624   28.9189   47.1042 H   0  0  0  0  0  0  0  0  0  0  0  0
   46.5046   29.9741   45.9414 H   0  0  0  0  0  0  0  0  0  0  0  0
   48.4148   29.0145   45.0553 H   0  0  0  0  0  0  0  0  0  0  0  0
   50.7811   28.4353   45.2428 H   0  0  0  0  0  0  0  0  0  0  0  0
   52.0186   28.8823   47.3419 H   0  0  0  0  0  0  0  0  0  0  0  0
   43.0821   36.2446   42.1373 H   0  0  0  0  0  0  0  0  0  0  0  0
   42.7138   34.9797   43.3403 H   0  0  0  0  0  0  0  0  0  0  0  0
  1  6  2  0
  2  3  2  0
  2  1  1  0
  3  4  1  0
  4  5  2  0
  5  6  1  0
  5  7  1  0
  7  8  1  0
  8  9  1  0
 10  9  1  0
 11 10  1  0
 12 15  1  0
 12  7  1  0
 12 11  1  0
 14 19  2  0
 14 13  1  0
 15 14  1  0
 16 17  1  0
 16 15  2  0
 17 18  2  0
 18 19  1  0
 19 20  1  0
 21  1  1  0
 22 21  1  0
 23 22  2  0
 24 22  1  0
  2 25  1  0
  3 26  1  0
  8 27  1  0
  8 28  1  0
  9 29  1  0
  9 30  1  0
 10 31  1  0
 10 32  1  0
 11 33  1  0
 11 34  1  0
 12 35  1  6
 16 36  1  0
 17 37  1  0
 18 38  1  0
 24 39  1  0
 24 40  1  0
M  ISO  8  25  14  26  14  27  13  28  13  29  13  30  13  31  13  32  13
M  ISO  6  33  13  34  13  35  13  36  14  37  14  38  14
M  END
>  <minimizedAffinity>  (1) 
-6.33117056

>  <minimizedRMSD>  (1) 
0.518428564

$$$$
