
     RDKit          3D

 40 42  0  0  1  0  0  0  0  0999 V2000
   45.6190   34.3230   45.0640 C   0  0  0  0  0  0  0  0  0  0  0  0
   46.4660   34.0480   43.9800 C   0  0  0  0  0  0  0  0  0  0  0  0
   47.3100   32.9300   44.0850 C   0  0  0  0  0  0  0  0  0  0  0  0
   47.2390   32.1890   45.2480 N   0  0  0  0  0  0  0  0  0  0  0  0
   46.4130   32.5070   46.2340 C   0  0  0  0  0  0  0  0  0  0  0  0
   45.6030   33.5650   46.1560 N   0  0  0  0  0  0  0  0  0  0  0  0
   46.4230   31.6410   47.4040 N   0  0  0  0  0  0  0  0  0  0  0  0
   46.1080   32.2370   48.6740 C   0  0  0  0  0  0  0  0  0  0  0  0
   45.3630   31.3060   49.5280 C   0  0  0  0  0  0  0  0  0  0  0  0
   44.8680   30.0330   48.9190 C   0  0  0  0  0  0  0  0  0  0  0  0
   45.8310   29.3850   48.0010 C   0  0  0  0  0  0  0  0  0  0  0  0
   46.7290   30.2480   47.2030 C   0  0  2  0  0  0  0  0  0  0  0  0
   48.1680   29.9220   47.2750 C   0  0  0  0  0  0  0  0  0  0  0  0
   48.9280   29.2740   46.3250 C   0  0  0  0  0  0  0  0  0  0  0  0
   50.2700   28.9860   46.4330 C   0  0  0  0  0  0  0  0  0  0  0  0
   50.9370   29.3660   47.5770 C   0  0  0  0  0  0  0  0  0  0  0  0
   50.2810   30.0210   48.5960 C   0  0  0  0  0  0  0  0  0  0  0  0
   48.9390   30.2640   48.3960 C   0  0  0  0  0  0  0  0  0  0  0  0
   44.8280   35.4190   44.8950 O   0  0  0  0  0  0  0  0  0  0  0  0
   44.4770   35.9920   43.6810 C   0  0  0  0  0  0  0  0  0  0  0  0
   45.1120   36.9450   43.1470 O   0  0  0  0  0  0  0  0  0  0  0  0
   43.3830   35.5990   42.8870 N   0  0  0  0  0  0  0  0  0  0  0  0
   46.4691   34.6835   43.0822 H   0  0  0  0  0  0  0  0  0  0  0  0
   47.9998   32.6558   43.2733 H   0  0  0  0  0  0  0  0  0  0  0  0
   47.0434   32.5177   49.1802 H   0  0  0  0  0  0  0  0  0  0  0  0
   45.4813   33.1234   48.4963 H   0  0  0  0  0  0  0  0  0  0  0  0
   46.0217   31.0328   50.3655 H   0  0  0  0  0  0  0  0  0  0  0  0
   44.4481   31.8542   49.7970 H   0  0  0  0  0  0  0  0  0  0  0  0
   44.6384   29.3282   49.7318 H   0  0  0  0  0  0  0  0  0  0  0  0
   43.9842   30.2929   48.3179 H   0  0  0  0  0  0  0  0  0  0  0  0
   46.4682   28.7264   48.6094 H   0  0  0  0  0  0  0  0  0  0  0  0
   45.1983   28.8859   47.2522 H   0  0  0  0  0  0  0  0  0  0  0  0
   46.5058   30.0125   46.1519 H   0  0  0  0  0  0  0  0  0  0  0  0
   48.4188   28.9602   45.4018 H   0  0  0  0  0  0  0  0  0  0  0  0
   50.7988   28.4632   45.6224 H   0  0  0  0  0  0  0  0  0  0  0  0
   52.0094   29.1431   47.6783 H   0  0  0  0  0  0  0  0  0  0  0  0
   50.7980   30.3320   49.5158 H   0  0  0  0  0  0  0  0  0  0  0  0
   48.4122   30.7859   49.2085 H   0  0  0  0  0  0  0  0  0  0  0  0
   43.1939   36.0803   41.9962 H   0  0  0  0  0  0  0  0  0  0  0  0
   42.7716   34.8302   43.1969 H   0  0  0  0  0  0  0  0  0  0  0  0
  1  6  2  0
  2  3  2  0
  2  1  1  0
  3  4  1  0
  4  5  2  0
  5  7  1  0
  6  5  1  0
  7  8  1  0
  8  9  1  0
 10  9  1  0
 11 10  1  0
 12 13  1  0
 12  7  1  0
 12 11  1  0
 13 18  2  0
 14 15  2  0
 14 13  1  0
 15 16  1  0
 16 17  2  0
 18 17  1  0
 19  1  1  0
 20 19  1  0
 21 20  2  0
 22 20  1  0
  2 23  1  0
  3 24  1  0
  8 25  1  0
  8 26  1  0
  9 27  1  0
  9 28  1  0
 10 29  1  0
 10 30  1  0
 11 31  1  0
 11 32  1  0
 12 33  1  6
 14 34  1  0
 15 35  1  0
 16 36  1  0
 17 37  1  0
 18 38  1  0
 22 39  1  0
 22 40  1  0
M  ISO  8  23  14  24  14  25  13  26  13  27  13  28  13  29  13  30  13
M  ISO  8  31  13  32  13  33  13  34  14  35  14  36  14  37  14  38  14
M  END
>  <minimizedAffinity>  (1) 
-6.01351261

>  <minimizedRMSD>  (1) 
0.485941976

$$$$
