
     RDKit          3D

 37 39  0  0  1  0  0  0  0  0999 V2000
   45.5710   34.3380   45.0430 C   0  0  0  0  0  0  0  0  0  0  0  0
   46.4410   34.0660   43.9610 C   0  0  0  0  0  0  0  0  0  0  0  0
   47.3020   32.9720   44.0780 C   0  0  0  0  0  0  0  0  0  0  0  0
   47.2510   32.2300   45.2350 N   0  0  0  0  0  0  0  0  0  0  0  0
   46.4010   32.5460   46.2200 C   0  0  0  0  0  0  0  0  0  0  0  0
   45.5700   33.5790   46.1400 N   0  0  0  0  0  0  0  0  0  0  0  0
   46.4340   31.6950   47.3890 N   0  0  0  0  0  0  0  0  0  0  0  0
   46.1010   32.2740   48.6640 C   0  0  0  0  0  0  0  0  0  0  0  0
   45.3520   31.3400   49.5210 C   0  0  0  0  0  0  0  0  0  0  0  0
   44.9070   30.0570   48.9200 C   0  0  0  0  0  0  0  0  0  0  0  0
   45.8460   29.4220   47.9770 C   0  0  0  0  0  0  0  0  0  0  0  0
   46.7970   30.2960   47.2470 C   0  0  2  0  0  0  0  0  0  0  0  0
   48.2210   30.0690   47.6270 C   0  0  0  0  0  0  0  0  0  0  0  0
   49.3010   29.3320   47.1800 C   0  0  0  0  0  0  0  0  0  0  0  0
   50.4740   29.4300   47.8610 C   0  0  0  0  0  0  0  0  0  0  0  0
   50.5830   30.2730   49.0040 C   0  0  0  0  0  0  0  0  0  0  0  0
   48.8870   30.9740   49.1140 S   0  0  0  0  0  0  0  0  0  0  0  0
   44.7530   35.4160   44.8750 O   0  0  0  0  0  0  0  0  0  0  0  0
   44.4540   36.0110   43.6580 C   0  0  0  0  0  0  0  0  0  0  0  0
   45.1080   36.9810   43.1450 O   0  0  0  0  0  0  0  0  0  0  0  0
   43.3750   35.6090   42.8330 N   0  0  0  0  0  0  0  0  0  0  0  0
   46.4396   34.6945   43.0583 H   0  0  0  0  0  0  0  0  0  0  0  0
   48.0001   32.7117   43.2687 H   0  0  0  0  0  0  0  0  0  0  0  0
   47.0313   32.5578   49.1779 H   0  0  0  0  0  0  0  0  0  0  0  0
   45.4616   33.1500   48.4801 H   0  0  0  0  0  0  0  0  0  0  0  0
   45.9942   31.0952   50.3798 H   0  0  0  0  0  0  0  0  0  0  0  0
   44.4199   31.8715   49.7632 H   0  0  0  0  0  0  0  0  0  0  0  0
   44.7233   29.3475   49.7403 H   0  0  0  0  0  0  0  0  0  0  0  0
   44.0138   30.3027   48.3269 H   0  0  0  0  0  0  0  0  0  0  0  0
   46.4421   28.6952   48.5484 H   0  0  0  0  0  0  0  0  0  0  0  0
   45.2027   28.9990   47.1913 H   0  0  0  0  0  0  0  0  0  0  0  0
   46.7166   30.0171   46.1860 H   0  0  0  0  0  0  0  0  0  0  0  0
   49.2142   28.6829   46.2962 H   0  0  0  0  0  0  0  0  0  0  0  0
   51.3479   28.8522   47.5256 H   0  0  0  0  0  0  0  0  0  0  0  0
   51.4535   30.4564   49.6510 H   0  0  0  0  0  0  0  0  0  0  0  0
   43.2033   36.0904   41.9387 H   0  0  0  0  0  0  0  0  0  0  0  0
   42.7621   34.8353   43.1274 H   0  0  0  0  0  0  0  0  0  0  0  0
  1  6  2  0
  2  3  2  0
  2  1  1  0
  3  4  1  0
  4  5  2  0
  5  7  1  0
  6  5  1  0
  7  8  1  0
  8  9  1  0
 10  9  1  0
 11 10  1  0
 12  7  1  0
 12 13  1  0
 12 11  1  0
 13 17  1  0
 14 13  2  0
 14 15  1  0
 15 16  2  0
 16 17  1  0
 18  1  1  0
 19 18  1  0
 20 19  2  0
 21 19  1  0
  2 22  1  0
  3 23  1  0
  8 24  1  0
  8 25  1  0
  9 26  1  0
  9 27  1  0
 10 28  1  0
 10 29  1  0
 11 30  1  0
 11 31  1  0
 12 32  1  6
 14 33  1  0
 15 34  1  0
 16 35  1  0
 21 36  1  0
 21 37  1  0
M  ISO  8  22  14  23  14  24  13  25  13  26  13  27  13  28  13  29  13
M  ISO  6  30  13  31  13  32  13  33  14  34  14  35  14
M  END
>  <minimizedAffinity>  (1) 
-5.9646287

>  <minimizedRMSD>  (1) 
0.232750759

$$$$
