
     RDKit          3D

 33 34  0  0  1  0  0  0  0  0999 V2000
   45.6220   34.3530   45.0140 C   0  0  0  0  0  0  0  0  0  0  0  0
   46.4260   34.0900   43.8970 C   0  0  0  0  0  0  0  0  0  0  0  0
   47.2700   32.9670   43.9500 C   0  0  0  0  0  0  0  0  0  0  0  0
   47.2450   32.2130   45.0910 N   0  0  0  0  0  0  0  0  0  0  0  0
   46.4580   32.5110   46.1250 C   0  0  0  0  0  0  0  0  0  0  0  0
   45.6390   33.5780   46.1040 N   0  0  0  0  0  0  0  0  0  0  0  0
   46.5230   31.6390   47.2670 N   0  0  0  0  0  0  0  0  0  0  0  0
   46.2710   32.1860   48.5670 C   0  0  0  0  0  0  0  0  0  0  0  0
   45.5160   31.2480   49.4260 C   0  0  0  0  0  0  0  0  0  0  0  0
   45.0260   29.9820   48.8230 C   0  0  0  0  0  0  0  0  0  0  0  0
   45.9080   29.3550   47.8010 C   0  0  0  0  0  0  0  0  0  0  0  0
   46.8340   30.2540   47.0910 C   0  0  2  0  0  0  0  0  0  0  0  0
   48.2570   29.9430   47.5740 C   0  0  0  0  0  0  0  0  0  0  0  0
   48.7820   31.0320   48.2500 F   0  0  0  0  0  0  0  0  0  0  0  0
   49.0590   29.7310   46.4690 F   0  0  0  0  0  0  0  0  0  0  0  0
   48.3020   28.7970   48.3370 F   0  0  0  0  0  0  0  0  0  0  0  0
   44.8180   35.4580   44.9130 O   0  0  0  0  0  0  0  0  0  0  0  0
   44.4610   36.0730   43.7310 C   0  0  0  0  0  0  0  0  0  0  0  0
   45.1020   37.0150   43.1740 O   0  0  0  0  0  0  0  0  0  0  0  0
   43.3130   35.7250   42.9790 N   0  0  0  0  0  0  0  0  0  0  0  0
   46.3978   34.7395   43.0097 H   0  0  0  0  0  0  0  0  0  0  0  0
   47.9253   32.7047   43.1063 H   0  0  0  0  0  0  0  0  0  0  0  0
   47.2332   32.4132   49.0493 H   0  0  0  0  0  0  0  0  0  0  0  0
   45.6644   33.0950   48.4414 H   0  0  0  0  0  0  0  0  0  0  0  0
   46.1713   30.9764   50.2667 H   0  0  0  0  0  0  0  0  0  0  0  0
   44.5996   31.7969   49.6886 H   0  0  0  0  0  0  0  0  0  0  0  0
   44.8861   29.2551   49.6367 H   0  0  0  0  0  0  0  0  0  0  0  0
   44.1018   30.2490   48.2895 H   0  0  0  0  0  0  0  0  0  0  0  0
   46.5106   28.5859   48.3063 H   0  0  0  0  0  0  0  0  0  0  0  0
   45.2280   28.9680   47.0278 H   0  0  0  0  0  0  0  0  0  0  0  0
   46.7386   30.0715   46.0104 H   0  0  0  0  0  0  0  0  0  0  0  0
   43.1009   36.2231   42.1027 H   0  0  0  0  0  0  0  0  0  0  0  0
   42.6900   34.9738   43.3082 H   0  0  0  0  0  0  0  0  0  0  0  0
  1  6  2  0
  2  3  2  0
  2  1  1  0
  3  4  1  0
  4  5  2  0
  5  7  1  0
  6  5  1  0
  7  8  1  0
  8  9  1  0
 10  9  1  0
 11 10  1  0
 12  7  1  0
 12 13  1  0
 12 11  1  0
 13 14  1  0
 13 16  1  0
 15 13  1  0
 17  1  1  0
 18 17  1  0
 19 18  2  0
 20 18  1  0
  2 21  1  0
  3 22  1  0
  8 23  1  0
  8 24  1  0
  9 25  1  0
  9 26  1  0
 10 27  1  0
 10 28  1  0
 11 29  1  0
 11 30  1  0
 12 31  1  6
 20 32  1  0
 20 33  1  0
M  ISO  8  21  14  22  14  23  13  24  13  25  13  26  13  27  13  28  13
M  ISO  3  29  13  30  13  31  13
M  END
>  <minimizedAffinity>  (1) 
-5.69586754

>  <minimizedRMSD>  (1) 
0.223358542

$$$$
