
     RDKit          3D

 43 45  0  0  1  0  0  0  0  0999 V2000
   45.6870   34.1780   45.0100 C   0  0  0  0  0  0  0  0  0  0  0  0
   46.2850   33.8290   43.7910 C   0  0  0  0  0  0  0  0  0  0  0  0
   46.9560   32.5990   43.7330 C   0  0  0  0  0  0  0  0  0  0  0  0
   46.9800   31.8280   44.8630 N   0  0  0  0  0  0  0  0  0  0  0  0
   46.3870   32.2190   46.0040 C   0  0  0  0  0  0  0  0  0  0  0  0
   45.7440   33.3830   46.0830 N   0  0  0  0  0  0  0  0  0  0  0  0
   46.4760   31.3210   47.1390 N   0  0  0  0  0  0  0  0  0  0  0  0
   46.4320   31.8670   48.4450 C   0  0  0  0  0  0  0  0  0  0  0  0
   45.6880   31.0010   49.3810 C   0  0  0  0  0  0  0  0  0  0  0  0
   44.9640   29.8400   48.8280 C   0  0  0  0  0  0  0  0  0  0  0  0
   45.6000   29.1340   47.6880 C   0  0  0  0  0  0  0  0  0  0  0  0
   46.6090   29.8980   46.8970 C   0  0  2  0  0  0  0  0  0  0  0  0
   47.9660   29.5130   47.4990 C   0  0  0  0  0  0  0  0  0  0  0  0
   49.0910   29.7110   46.5400 C   0  0  0  0  0  0  0  0  0  0  0  0
   49.0900   28.4890   45.6900 C   0  0  0  0  0  0  0  0  0  0  0  0
   48.9140   27.3950   46.7500 C   0  0  0  0  0  0  0  0  0  0  0  0
   48.0320   28.0360   47.7820 C   0  0  0  0  0  0  0  0  0  0  0  0
   45.0470   35.3850   45.0180 O   0  0  0  0  0  0  0  0  0  0  0  0
   44.5390   36.0230   43.8930 C   0  0  0  0  0  0  0  0  0  0  0  0
   45.1290   36.9480   43.2710 O   0  0  0  0  0  0  0  0  0  0  0  0
   43.2920   35.7240   43.2890 N   0  0  0  0  0  0  0  0  0  0  0  0
   46.2301   34.4929   42.9157 H   0  0  0  0  0  0  0  0  0  0  0  0
   47.4478   32.2644   42.8077 H   0  0  0  0  0  0  0  0  0  0  0  0
   47.4611   31.9878   48.8144 H   0  0  0  0  0  0  0  0  0  0  0  0
   45.9126   32.8352   48.3915 H   0  0  0  0  0  0  0  0  0  0  0  0
   46.4114   30.6156   50.1146 H   0  0  0  0  0  0  0  0  0  0  0  0
   44.8967   31.6501   49.7841 H   0  0  0  0  0  0  0  0  0  0  0  0
   44.8354   29.1103   49.6410 H   0  0  0  0  0  0  0  0  0  0  0  0
   44.0271   30.2515   48.4243 H   0  0  0  0  0  0  0  0  0  0  0  0
   46.0999   28.2397   48.0885 H   0  0  0  0  0  0  0  0  0  0  0  0
   44.7796   28.9299   46.9842 H   0  0  0  0  0  0  0  0  0  0  0  0
   46.4938   29.6827   45.8245 H   0  0  0  0  0  0  0  0  0  0  0  0
   48.0576   30.1446   48.3950 H   0  0  0  0  0  0  0  0  0  0  0  0
   48.9234   30.6088   45.9270 H   0  0  0  0  0  0  0  0  0  0  0  0
   50.0524   29.8567   47.0542 H   0  0  0  0  0  0  0  0  0  0  0  0
   48.2550   28.4957   44.9740 H   0  0  0  0  0  0  0  0  0  0  0  0
   49.9860   28.3724   45.0627 H   0  0  0  0  0  0  0  0  0  0  0  0
   48.4308   26.5057   46.3191 H   0  0  0  0  0  0  0  0  0  0  0  0
   49.8712   27.0466   47.1652 H   0  0  0  0  0  0  0  0  0  0  0  0
   48.4513   27.8682   48.7850 H   0  0  0  0  0  0  0  0  0  0  0  0
   47.0237   27.5980   47.7423 H   0  0  0  0  0  0  0  0  0  0  0  0
   42.9862   36.2442   42.4543 H   0  0  0  0  0  0  0  0  0  0  0  0
   42.6917   34.9865   43.6848 H   0  0  0  0  0  0  0  0  0  0  0  0
  1 18  1  0
  1  6  2  0
  2  1  1  0
  3  2  2  0
  3  4  1  0
  4  5  2  0
  5  6  1  0
  5  7  1  0
  7  8  1  0
  8  9  1  0
 10  9  1  0
 11 10  1  0
 12  7  1  0
 12 13  1  0
 12 11  1  0
 13 17  1  0
 14 13  1  0
 15 14  1  0
 15 16  1  0
 16 17  1  0
 19 18  1  0
 20 19  2  0
 21 19  1  0
  2 22  1  0
  3 23  1  0
  8 24  1  0
  8 25  1  0
  9 26  1  0
  9 27  1  0
 10 28  1  0
 10 29  1  0
 11 30  1  0
 11 31  1  0
 12 32  1  6
 13 33  1  0
 14 34  1  0
 14 35  1  0
 15 36  1  0
 15 37  1  0
 16 38  1  0
 16 39  1  0
 17 40  1  0
 17 41  1  0
 21 42  1  0
 21 43  1  0
M  ISO  8  22  14  23  14  24  13  25  13  26  13  27  13  28  13  29  13
M  ISO  8  30  13  31  13  32  13  33  13  34  13  35  13  36  13  37  13
M  ISO  4  38  13  39  13  40  13  41  13
M  END
>  <minimizedAffinity>  (1) 
-5.2081728

>  <minimizedRMSD>  (1) 
0.515234411

$$$$
