
     RDKit          3D

 37 39  0  0  1  0  0  0  0  0999 V2000
   47.2380   34.6330   42.3410 N   0  0  0  0  0  0  0  0  0  0  0  0
   48.6840   34.5760   42.3660 C   0  0  0  0  0  0  0  0  0  0  0  0
   48.9560   35.4630   41.1630 C   0  0  0  0  0  0  0  0  0  0  0  0
   48.0860   34.7380   40.1460 C   0  0  0  0  0  0  0  0  0  0  0  0
   46.8320   34.4460   40.9500 C   0  0  1  0  0  0  0  0  0  0  0  0
   44.5030   36.0020   44.4660 C   0  0  0  0  0  0  0  0  0  0  0  0
   45.3760   35.8890   43.3750 C   0  0  0  0  0  0  0  0  0  0  0  0
   46.3140   34.8290   43.3910 C   0  0  0  0  0  0  0  0  0  0  0  0
   46.3220   33.9860   44.4500 N   0  0  0  0  0  0  0  0  0  0  0  0
   45.4630   34.1240   45.4890 C   0  0  0  0  0  0  0  0  0  0  0  0
   44.5560   35.1220   45.5060 N   0  0  0  0  0  0  0  0  0  0  0  0
   44.9510   33.0160   40.2550 C   0  0  0  0  0  0  0  0  0  0  0  0
   46.2530   33.1330   40.6960 C   0  0  0  0  0  0  0  0  0  0  0  0
   47.0000   31.9910   40.8960 C   0  0  0  0  0  0  0  0  0  0  0  0
   46.3550   30.8050   40.6290 C   0  0  0  0  0  0  0  0  0  0  0  0
   45.0660   30.6480   40.1910 C   0  0  0  0  0  0  0  0  0  0  0  0
   44.3430   31.7990   39.9990 C   0  0  0  0  0  0  0  0  0  0  0  0
   43.4540   35.2120   40.3460 N   0  0  0  0  0  0  0  0  0  0  0  0
   44.0700   34.1480   40.0160 C   0  0  0  0  0  0  0  0  0  0  0  0
   43.4530   34.3500   38.7400 N   0  0  0  0  0  0  0  0  0  0  0  0
   43.4640   35.6900   41.2640 H   0  0  0  0  0  0  0  0  0  0  0  0
   49.1008   34.9945   43.2940 H   0  0  0  0  0  0  0  0  0  0  0  0
   49.1264   33.5695   42.3314 H   0  0  0  0  0  0  0  0  0  0  0  0
   48.6245   36.4987   41.3284 H   0  0  0  0  0  0  0  0  0  0  0  0
   50.0142   35.5823   40.8873 H   0  0  0  0  0  0  0  0  0  0  0  0
   48.5644   33.8094   39.8013 H   0  0  0  0  0  0  0  0  0  0  0  0
   47.8992   35.3181   39.2302 H   0  0  0  0  0  0  0  0  0  0  0  0
   46.0117   35.1200   40.6620 H   0  0  0  0  0  0  0  0  0  0  0  0
   43.7622   36.8150   44.4833 H   0  0  0  0  0  0  0  0  0  0  0  0
   45.3336   36.5991   42.5360 H   0  0  0  0  0  0  0  0  0  0  0  0
   45.5060   33.4140   46.3280 H   0  0  0  0  0  0  0  0  0  0  0  0
   48.0423   32.0258   41.2458 H   0  0  0  0  0  0  0  0  0  0  0  0
   46.9365   29.8842   40.7838 H   0  0  0  0  0  0  0  0  0  0  0  0
   44.6342   29.6538   40.0035 H   0  0  0  0  0  0  0  0  0  0  0  0
   43.3012   31.7551   39.6487 H   0  0  0  0  0  0  0  0  0  0  0  0
   42.8320   35.1580   38.5904 H   0  0  0  0  0  0  0  0  0  0  0  0
   43.6301   33.6873   37.9716 H   0  0  0  0  0  0  0  0  0  0  0  0
  1  2  1  0
  1  8  1  0
  3  2  1  0
  4  5  1  0
  4  3  1  0
  5  1  1  0
  6 11  2  0
  7  8  2  0
  7  6  1  0
  8  9  1  0
  9 10  2  0
 10 11  1  0
 12 13  2  0
 13 14  1  0
 13  5  1  0
 15 14  2  0
 16 15  1  0
 17 16  2  0
 17 12  1  0
 18 21  1  0
 19 12  1  0
 19 18  2  0
 20 19  1  0
  2 22  1  0
  2 23  1  0
  3 24  1  0
  3 25  1  0
  4 26  1  0
  4 27  1  0
  5 28  1  6
  6 29  1  0
  7 30  1  0
 10 31  1  0
 14 32  1  0
 15 33  1  0
 16 34  1  0
 17 35  1  0
 20 36  1  0
 20 37  1  0
M  ISO  8  22  13  23  13  24  13  25  13  26  13  27  13  28  13  29  14
M  ISO  6  30  14  31  14  32  14  33  14  34  14  35  14
M  END
>  <minimizedAffinity>  (1) 
-5.35231686

>  <minimizedRMSD>  (1) 
0.419352949

$$$$
