
     RDKit          3D

 32 34  0  0  1  0  0  0  0  0999 V2000
   47.3090   34.4910   42.7310 N   0  0  0  0  0  0  0  0  0  0  0  0
   48.6880   34.0100   42.7720 C   0  0  0  0  0  0  0  0  0  0  0  0
   49.3110   35.0540   41.8950 C   0  0  0  0  0  0  0  0  0  0  0  0
   48.3770   34.9770   40.6850 C   0  0  0  0  0  0  0  0  0  0  0  0
   47.0340   34.8350   41.3520 C   0  0  1  0  0  0  0  0  0  0  0  0
   44.5040   35.6980   44.8620 C   0  0  0  0  0  0  0  0  0  0  0  0
   45.3910   35.6350   43.7850 C   0  0  0  0  0  0  0  0  0  0  0  0
   46.3840   34.6250   43.7680 C   0  0  0  0  0  0  0  0  0  0  0  0
   46.4040   33.7730   44.8210 N   0  0  0  0  0  0  0  0  0  0  0  0
   45.5440   33.8430   45.8560 C   0  0  0  0  0  0  0  0  0  0  0  0
   44.5860   34.8100   45.8820 N   0  0  0  0  0  0  0  0  0  0  0  0
   46.1060   33.9320   40.6730 C   0  0  0  0  0  0  0  0  0  0  0  0
   46.5880   32.7660   40.0690 C   0  0  0  0  0  0  0  0  0  0  0  0
   45.7890   31.8480   39.4020 C   0  0  0  0  0  0  0  0  0  0  0  0
   44.4170   32.0880   39.3210 C   0  0  0  0  0  0  0  0  0  0  0  0
   43.8930   33.2310   39.9050 C   0  0  0  0  0  0  0  0  0  0  0  0
   44.7510   34.0950   40.5500 C   0  0  0  0  0  0  0  0  0  0  0  0
   49.1019   34.0234   43.7911 H   0  0  0  0  0  0  0  0  0  0  0  0
   48.8407   32.9671   42.4571 H   0  0  0  0  0  0  0  0  0  0  0  0
   49.2888   36.0482   42.3651 H   0  0  0  0  0  0  0  0  0  0  0  0
   50.3756   34.8941   41.6692 H   0  0  0  0  0  0  0  0  0  0  0  0
   48.6069   34.1054   40.0546 H   0  0  0  0  0  0  0  0  0  0  0  0
   48.4515   35.8384   40.0049 H   0  0  0  0  0  0  0  0  0  0  0  0
   46.4777   35.7823   41.2955 H   0  0  0  0  0  0  0  0  0  0  0  0
   43.7291   36.4784   44.8824 H   0  0  0  0  0  0  0  0  0  0  0  0
   45.3194   36.3601   42.9609 H   0  0  0  0  0  0  0  0  0  0  0  0
   45.6160   33.1184   46.6804 H   0  0  0  0  0  0  0  0  0  0  0  0
   47.6678   32.5641   40.1263 H   0  0  0  0  0  0  0  0  0  0  0  0
   46.2288   30.9487   38.9461 H   0  0  0  0  0  0  0  0  0  0  0  0
   43.7582   31.3781   38.7995 H   0  0  0  0  0  0  0  0  0  0  0  0
   42.8149   33.4437   39.8545 H   0  0  0  0  0  0  0  0  0  0  0  0
   44.3099   34.9937   41.0058 H   0  0  0  0  0  0  0  0  0  0  0  0
  1  2  1  0
  1  8  1  0
  3  2  1  0
  4  5  1  0
  4  3  1  0
  5  1  1  0
  6 11  2  0
  7  6  1  0
  8  7  2  0
  8  9  1  0
  9 10  2  0
 10 11  1  0
 12  5  1  0
 13 12  2  0
 14 13  1  0
 15 14  2  0
 15 16  1  0
 16 17  2  0
 17 12  1  0
  2 18  1  0
  2 19  1  0
  3 20  1  0
  3 21  1  0
  4 22  1  0
  4 23  1  0
  5 24  1  1
  6 25  1  0
  7 26  1  0
 10 27  1  0
 13 28  1  0
 14 29  1  0
 15 30  1  0
 16 31  1  0
 17 32  1  0
M  ISO  8  18  13  19  13  20  13  21  13  22  13  23  13  24  13  25  14
M  ISO  7  26  14  27  14  28  14  29  14  30  14  31  14  32  14
M  END
>  <minimizedAffinity>  (1) 
-4.72066927

>  <minimizedRMSD>  (1) 
1.28212011

$$$$
