
     RDKit          3D

 30 32  0  0  1  0  0  0  0  0999 V2000
   47.1100   34.2900   42.5700 N   0  0  0  0  0  0  0  0  0  0  0  0
   48.3510   33.5620   42.5150 C   0  0  0  0  0  0  0  0  0  0  0  0
   49.1520   34.5290   41.6770 C   0  0  0  0  0  0  0  0  0  0  0  0
   48.2100   34.7400   40.5190 C   0  0  0  0  0  0  0  0  0  0  0  0
   46.8600   34.7230   41.2000 C   0  0  1  0  0  0  0  0  0  0  0  0
   44.5270   35.8710   44.7420 C   0  0  0  0  0  0  0  0  0  0  0  0
   45.3410   35.6790   43.6310 C   0  0  0  0  0  0  0  0  0  0  0  0
   46.2390   34.5900   43.6310 C   0  0  0  0  0  0  0  0  0  0  0  0
   46.2650   33.7670   44.7320 N   0  0  0  0  0  0  0  0  0  0  0  0
   45.4460   34.0030   45.7900 C   0  0  0  0  0  0  0  0  0  0  0  0
   44.5800   35.0460   45.8020 N   0  0  0  0  0  0  0  0  0  0  0  0
   45.9120   33.8110   40.4910 C   0  0  0  0  0  0  0  0  0  0  0  0
   44.5470   34.0800   40.5310 C   0  0  0  0  0  0  0  0  0  0  0  0
   43.6640   33.2480   39.8840 C   0  0  0  0  0  0  0  0  0  0  0  0
   44.1450   32.1750   39.2130 N   0  0  0  0  0  0  0  0  0  0  0  0
   45.4830   31.9280   39.1840 C   0  0  0  0  0  0  0  0  0  0  0  0
   46.3570   32.7380   39.8170 N   0  0  0  0  0  0  0  0  0  0  0  0
   48.7902   33.4187   43.5133 H   0  0  0  0  0  0  0  0  0  0  0  0
   48.2824   32.5373   42.1210 H   0  0  0  0  0  0  0  0  0  0  0  0
   49.3480   35.4673   42.2165 H   0  0  0  0  0  0  0  0  0  0  0  0
   50.1517   34.1685   41.3931 H   0  0  0  0  0  0  0  0  0  0  0  0
   48.2954   33.9279   39.7820 H   0  0  0  0  0  0  0  0  0  0  0  0
   48.4071   35.6612   39.9510 H   0  0  0  0  0  0  0  0  0  0  0  0
   46.3843   35.7147   41.1839 H   0  0  0  0  0  0  0  0  0  0  0  0
   43.8240   36.7169   44.7537 H   0  0  0  0  0  0  0  0  0  0  0  0
   45.2862   36.3616   42.7701 H   0  0  0  0  0  0  0  0  0  0  0  0
   45.4866   33.3304   46.6594 H   0  0  0  0  0  0  0  0  0  0  0  0
   44.1749   34.9576   41.0799 H   0  0  0  0  0  0  0  0  0  0  0  0
   42.5833   33.4511   39.9112 H   0  0  0  0  0  0  0  0  0  0  0  0
   45.8587   31.0522   38.6346 H   0  0  0  0  0  0  0  0  0  0  0  0
  1  8  1  0
  2  1  1  0
  3  2  1  0
  4  5  1  0
  4  3  1  0
  5  1  1  0
  6 11  2  0
  7  6  1  0
  8  7  2  0
  8  9  1  0
  9 10  2  0
 10 11  1  0
 12 13  2  0
 12  5  1  0
 14 13  1  0
 15 14  2  0
 16 15  1  0
 16 17  2  0
 17 12  1  0
  2 18  1  0
  2 19  1  0
  3 20  1  0
  3 21  1  0
  4 22  1  0
  4 23  1  0
  5 24  1  1
  6 25  1  0
  7 26  1  0
 10 27  1  0
 13 28  1  0
 14 29  1  0
 16 30  1  0
M  ISO  8  18  13  19  13  20  13  21  13  22  13  23  13  24  13  25  14
M  ISO  5  26  14  27  14  28  14  29  14  30  14
M  END
>  <minimizedAffinity>  (1) 
-4.68664837

>  <minimizedRMSD>  (1) 
1.63622785

$$$$
