
     RDKit          3D

 31 33  0  0  1  0  0  0  0  0999 V2000
   47.2680   34.5540   42.5790 N   0  0  0  0  0  0  0  0  0  0  0  0
   48.6790   34.2520   42.5930 C   0  0  0  0  0  0  0  0  0  0  0  0
   49.1370   35.2490   41.5500 C   0  0  0  0  0  0  0  0  0  0  0  0
   48.1970   34.8190   40.4170 C   0  0  0  0  0  0  0  0  0  0  0  0
   46.9060   34.6600   41.1760 C   0  0  1  0  0  0  0  0  0  0  0  0
   44.4900   35.8380   44.6720 C   0  0  0  0  0  0  0  0  0  0  0  0
   45.3720   35.7490   43.6000 C   0  0  0  0  0  0  0  0  0  0  0  0
   46.3420   34.7300   43.6160 C   0  0  0  0  0  0  0  0  0  0  0  0
   46.3590   33.8920   44.6840 N   0  0  0  0  0  0  0  0  0  0  0  0
   45.5030   33.9900   45.7130 C   0  0  0  0  0  0  0  0  0  0  0  0
   44.5590   34.9690   45.7130 N   0  0  0  0  0  0  0  0  0  0  0  0
   45.9960   33.6480   40.6770 C   0  0  0  0  0  0  0  0  0  0  0  0
   44.6590   33.8450   40.4140 C   0  0  0  0  0  0  0  0  0  0  0  0
   43.8350   32.8430   39.9370 C   0  0  0  0  0  0  0  0  0  0  0  0
   44.3490   31.5850   39.7080 C   0  0  0  0  0  0  0  0  0  0  0  0
   45.6800   31.3960   39.9730 C   0  0  0  0  0  0  0  0  0  0  0  0
   46.4340   32.3820   40.4280 N   0  0  0  0  0  0  0  0  0  0  0  0
   49.1334   34.4437   43.5763 H   0  0  0  0  0  0  0  0  0  0  0  0
   48.9431   33.2024   42.3964 H   0  0  0  0  0  0  0  0  0  0  0  0
   48.9636   36.2891   41.8632 H   0  0  0  0  0  0  0  0  0  0  0  0
   50.2115   35.2424   41.3147 H   0  0  0  0  0  0  0  0  0  0  0  0
   48.5187   33.8715   39.9601 H   0  0  0  0  0  0  0  0  0  0  0  0
   48.1478   35.5207   39.5713 H   0  0  0  0  0  0  0  0  0  0  0  0
   46.2702   35.5440   41.0199 H   0  0  0  0  0  0  0  0  0  0  0  0
   43.7230   36.6264   44.6764 H   0  0  0  0  0  0  0  0  0  0  0  0
   45.3126   36.4576   42.7607 H   0  0  0  0  0  0  0  0  0  0  0  0
   45.5646   33.2818   46.5524 H   0  0  0  0  0  0  0  0  0  0  0  0
   44.2285   34.8417   40.5909 H   0  0  0  0  0  0  0  0  0  0  0  0
   42.7724   33.0490   39.7408 H   0  0  0  0  0  0  0  0  0  0  0  0
   43.7179   30.7677   39.3288 H   0  0  0  0  0  0  0  0  0  0  0  0
   46.1292   30.4062   39.8041 H   0  0  0  0  0  0  0  0  0  0  0  0
  1  2  1  0
  1  8  1  0
  3  2  1  0
  4  5  1  0
  4  3  1  0
  5  1  1  0
  6 11  2  0
  7  8  2  0
  7  6  1  0
  8  9  1  0
  9 10  2  0
 11 10  1  0
 12  5  1  0
 13 12  2  0
 14 13  1  0
 15 14  2  0
 15 16  1  0
 16 17  2  0
 17 12  1  0
  2 18  1  0
  2 19  1  0
  3 20  1  0
  3 21  1  0
  4 22  1  0
  4 23  1  0
  5 24  1  1
  6 25  1  0
  7 26  1  0
 10 27  1  0
 13 28  1  0
 14 29  1  0
 15 30  1  0
 16 31  1  0
M  ISO  8  18  13  19  13  20  13  21  13  22  13  23  13  24  13  25  14
M  ISO  6  26  14  27  14  28  14  29  14  30  14  31  14
M  END
>  <minimizedAffinity>  (1) 
-4.66364241

>  <minimizedRMSD>  (1) 
1.01696384

$$$$
