
     RDKit          3D

 52 56  0  0  1  0  0  0  0  0999 V2000
   47.6950   34.2110   42.9670 N   0  0  0  0  0  0  0  0  0  0  0  0
   49.0640   33.8110   42.6790 C   0  0  0  0  0  0  0  0  0  0  0  0
   49.5350   35.1260   42.0940 C   0  0  0  0  0  0  0  0  0  0  0  0
   48.4730   35.3690   41.0610 C   0  0  0  0  0  0  0  0  0  0  0  0
   47.2070   34.9530   41.7720 C   0  0  1  0  0  0  0  0  0  0  0  0
   46.4040   34.0030   41.0290 C   0  0  0  0  0  0  0  0  0  0  0  0
   46.9640   32.9040   40.4630 N   0  0  0  0  0  0  0  0  0  0  0  0
   46.2940   31.9810   39.7520 C   0  0  0  0  0  0  0  0  0  0  0  0
   44.9750   32.1460   39.5830 N   0  0  0  0  0  0  0  0  0  0  0  0
   44.3740   33.2020   40.1150 C   0  0  0  0  0  0  0  0  0  0  0  0
   43.0030   33.3150   39.9090 C   0  0  0  0  0  0  0  0  0  0  0  0
   42.3770   34.4200   40.4710 C   0  0  0  0  0  0  0  0  0  0  0  0
   43.0170   35.4080   41.2150 C   0  0  0  0  0  0  0  0  0  0  0  0
   44.3760   35.2130   41.3670 C   0  0  0  0  0  0  0  0  0  0  0  0
   45.0470   34.1670   40.8520 C   0  0  0  0  0  0  0  0  0  0  0  0
   45.0400   34.4860   45.5700 C   0  0  0  0  0  0  0  0  0  0  0  0
   45.7680   34.7840   44.4270 C   0  0  0  0  0  0  0  0  0  0  0  0
   46.8740   34.0120   44.1000 C   0  0  0  0  0  0  0  0  0  0  0  0
   47.2010   32.9840   44.9270 N   0  0  0  0  0  0  0  0  0  0  0  0
   46.4840   32.6940   46.0510 C   0  0  0  0  0  0  0  0  0  0  0  0
   45.4060   33.4520   46.3610 N   0  0  0  0  0  0  0  0  0  0  0  0
   46.8590   31.5630   46.9440 C   0  0  0  0  0  0  0  0  0  0  0  0
   45.9150   30.4100   46.7920 C   0  0  0  0  0  0  0  0  0  0  0  0
   44.8770   30.2620   47.8440 C   0  0  0  0  0  0  0  0  0  0  0  0
   45.3320   30.6040   49.2410 C   0  0  0  0  0  0  0  0  0  0  0  0
   45.7820   32.0630   49.1670 C   0  0  0  0  0  0  0  0  0  0  0  0
   47.0450   32.0470   48.3610 C   0  0  0  0  0  0  0  0  0  0  0  0
   49.6192   33.5339   43.5873 H   0  0  0  0  0  0  0  0  0  0  0  0
   49.1888   32.9220   42.0433 H   0  0  0  0  0  0  0  0  0  0  0  0
   49.5530   35.9232   42.8518 H   0  0  0  0  0  0  0  0  0  0  0  0
   50.5609   35.1074   41.6976 H   0  0  0  0  0  0  0  0  0  0  0  0
   48.6441   34.7535   40.1655 H   0  0  0  0  0  0  0  0  0  0  0  0
   48.4472   36.4083   40.7016 H   0  0  0  0  0  0  0  0  0  0  0  0
   46.5872   35.8431   41.9553 H   0  0  0  0  0  0  0  0  0  0  0  0
   46.8145   31.1134   39.3204 H   0  0  0  0  0  0  0  0  0  0  0  0
   42.4425   32.5664   39.3298 H   0  0  0  0  0  0  0  0  0  0  0  0
   41.2927   34.5226   40.3166 H   0  0  0  0  0  0  0  0  0  0  0  0
   42.4857   36.2700   41.6449 H   0  0  0  0  0  0  0  0  0  0  0  0
   44.9437   35.9579   41.9439 H   0  0  0  0  0  0  0  0  0  0  0  0
   44.1616   35.0933   45.8338 H   0  0  0  0  0  0  0  0  0  0  0  0
   45.4707   35.6260   43.7847 H   0  0  0  0  0  0  0  0  0  0  0  0
   47.8367   31.1628   46.6375 H   0  0  0  0  0  0  0  0  0  0  0  0
   45.3994   30.5248   45.8272 H   0  0  0  0  0  0  0  0  0  0  0  0
   46.5405   29.5085   46.8704 H   0  0  0  0  0  0  0  0  0  0  0  0
   44.0352   30.9222   47.5881 H   0  0  0  0  0  0  0  0  0  0  0  0
   44.6064   29.1959   47.8611 H   0  0  0  0  0  0  0  0  0  0  0  0
   44.5033   30.4912   49.9556 H   0  0  0  0  0  0  0  0  0  0  0  0
   46.1390   29.9407   49.5857 H   0  0  0  0  0  0  0  0  0  0  0  0
   45.0163   32.6777   48.6711 H   0  0  0  0  0  0  0  0  0  0  0  0
   45.9388   32.4949   50.1664 H   0  0  0  0  0  0  0  0  0  0  0  0
   47.7670   31.3849   48.8613 H   0  0  0  0  0  0  0  0  0  0  0  0
   47.3983   33.0869   48.2998 H   0  0  0  0  0  0  0  0  0  0  0  0
  1 18  1  0
  2  1  1  0
  3  2  1  0
  4  5  1  0
  4  3  1  0
  5  1  1  0
  6  5  1  0
  7  6  2  0
  8  7  1  0
  9  8  2  0
  9 10  1  0
 10 15  2  0
 11 10  1  0
 11 12  2  0
 12 13  1  0
 13 14  2  0
 15  6  1  0
 15 14  1  0
 16 21  2  0
 17 16  1  0
 18 17  2  0
 18 19  1  0
 19 20  2  0
 20 21  1  0
 20 22  1  0
 22 27  1  0
 23 22  1  0
 23 24  1  0
 24 25  1  0
 26 25  1  0
 27 26  1  0
  2 28  1  0
  2 29  1  0
  3 30  1  0
  3 31  1  0
  4 32  1  0
  4 33  1  0
  5 34  1  1
  8 35  1  0
 11 36  1  0
 12 37  1  0
 13 38  1  0
 14 39  1  0
 16 40  1  0
 17 41  1  0
 22 42  1  0
 23 43  1  0
 23 44  1  0
 24 45  1  0
 24 46  1  0
 25 47  1  0
 25 48  1  0
 26 49  1  0
 26 50  1  0
 27 51  1  0
 27 52  1  0
M  ISO  8  28  13  29  13  30  13  31  13  32  13  33  13  34  13  35  14
M  ISO  8  36  14  37  14  38  14  39  14  40  14  41  14  42  13  43  13
M  ISO  8  44  13  45  13  46  13  47  13  48  13  49  13  50  13  51  13
M  ISO  1  52  13
M  END
>  <minimizedAffinity>  (1) 
-7.35476017

>  <minimizedRMSD>  (1) 
1.35477066

$$$$
