
     RDKit          3D

 46 50  0  0  1  0  0  0  0  0999 V2000
   47.2260   34.3190   42.7570 N   0  0  0  0  0  0  0  0  0  0  0  0
   48.5780   33.7650   42.6410 C   0  0  0  0  0  0  0  0  0  0  0  0
   49.1720   34.8780   41.8030 C   0  0  0  0  0  0  0  0  0  0  0  0
   48.1620   34.9510   40.6840 C   0  0  0  0  0  0  0  0  0  0  0  0
   46.8410   34.7970   41.4040 C   0  0  1  0  0  0  0  0  0  0  0  0
   45.9980   33.7530   40.8550 C   0  0  0  0  0  0  0  0  0  0  0  0
   46.5090   32.5490   40.5010 N   0  0  0  0  0  0  0  0  0  0  0  0
   45.7920   31.5300   39.9790 C   0  0  0  0  0  0  0  0  0  0  0  0
   44.4710   31.7120   39.7960 N   0  0  0  0  0  0  0  0  0  0  0  0
   43.9230   32.8760   40.1280 C   0  0  0  0  0  0  0  0  0  0  0  0
   42.5550   33.0020   39.9160 C   0  0  0  0  0  0  0  0  0  0  0  0
   41.9870   34.2200   40.2660 C   0  0  0  0  0  0  0  0  0  0  0  0
   42.6700   35.3060   40.8020 C   0  0  0  0  0  0  0  0  0  0  0  0
   44.0230   35.0860   40.9750 C   0  0  0  0  0  0  0  0  0  0  0  0
   44.6510   33.9320   40.6630 C   0  0  0  0  0  0  0  0  0  0  0  0
   44.6060   35.4390   45.1490 C   0  0  0  0  0  0  0  0  0  0  0  0
   45.4030   35.4190   44.0150 C   0  0  0  0  0  0  0  0  0  0  0  0
   46.3680   34.4330   43.8660 C   0  0  0  0  0  0  0  0  0  0  0  0
   46.4940   33.5120   44.8560 N   0  0  0  0  0  0  0  0  0  0  0  0
   45.7100   33.5310   45.9720 C   0  0  0  0  0  0  0  0  0  0  0  0
   44.7720   34.4960   46.1070 N   0  0  0  0  0  0  0  0  0  0  0  0
   47.3640   31.2120   45.1570 Cl  0  0  0  0  0  0  0  0  0  0  0  0
   46.6360   31.3960   46.7340 C   0  0  0  0  0  0  0  0  0  0  0  0
   45.8820   32.5190   47.0110 C   0  0  0  0  0  0  0  0  0  0  0  0
   45.2880   32.7090   48.2430 C   0  0  0  0  0  0  0  0  0  0  0  0
   45.4710   31.7250   49.2110 C   0  0  0  0  0  0  0  0  0  0  0  0
   46.2300   30.5910   48.9410 C   0  0  0  0  0  0  0  0  0  0  0  0
   46.8150   30.4310   47.6890 C   0  0  0  0  0  0  0  0  0  0  0  0
   49.0750   33.6640   43.6171 H   0  0  0  0  0  0  0  0  0  0  0  0
   48.6561   32.7479   42.2294 H   0  0  0  0  0  0  0  0  0  0  0  0
   49.2261   35.8231   42.3632 H   0  0  0  0  0  0  0  0  0  0  0  0
   50.2069   34.7014   41.4747 H   0  0  0  0  0  0  0  0  0  0  0  0
   48.3147   34.1367   39.9604 H   0  0  0  0  0  0  0  0  0  0  0  0
   48.2303   35.8805   40.0997 H   0  0  0  0  0  0  0  0  0  0  0  0
   46.2853   35.7447   41.3476 H   0  0  0  0  0  0  0  0  0  0  0  0
   46.2742   30.5783   39.7111 H   0  0  0  0  0  0  0  0  0  0  0  0
   41.9553   32.1820   39.4942 H   0  0  0  0  0  0  0  0  0  0  0  0
   40.9049   34.3354   40.1056 H   0  0  0  0  0  0  0  0  0  0  0  0
   42.1779   36.2541   41.0645 H   0  0  0  0  0  0  0  0  0  0  0  0
   44.6277   35.9038   41.3940 H   0  0  0  0  0  0  0  0  0  0  0  0
   43.8402   36.2192   45.2706 H   0  0  0  0  0  0  0  0  0  0  0  0
   45.2708   36.1831   43.2349 H   0  0  0  0  0  0  0  0  0  0  0  0
   44.6900   33.6081   48.4528 H   0  0  0  0  0  0  0  0  0  0  0  0
   45.0094   31.8460   50.2021 H   0  0  0  0  0  0  0  0  0  0  0  0
   46.3674   29.8224   49.7158 H   0  0  0  0  0  0  0  0  0  0  0  0
   47.4163   29.5368   47.4680 H   0  0  0  0  0  0  0  0  0  0  0  0
  1 18  1  0
  2  1  1  0
  3  2  1  0
  4  5  1  0
  4  3  1  0
  5  1  1  0
  6  5  1  0
  7  6  2  0
  8  7  1  0
  9  8  2  0
  9 10  1  0
 10 15  2  0
 11 10  1  0
 11 12  2  0
 12 13  1  0
 13 14  2  0
 15  6  1  0
 15 14  1  0
 16 21  2  0
 17 16  1  0
 18 17  2  0
 18 19  1  0
 19 20  2  0
 20 21  1  0
 20 24  1  0
 22 23  1  0
 23 24  2  0
 23 28  1  0
 24 25  1  0
 25 26  2  0
 27 26  1  0
 28 27  2  0
  2 29  1  0
  2 30  1  0
  3 31  1  0
  3 32  1  0
  4 33  1  0
  4 34  1  0
  5 35  1  1
  8 36  1  0
 11 37  1  0
 12 38  1  0
 13 39  1  0
 14 40  1  0
 16 41  1  0
 17 42  1  0
 25 43  1  0
 26 44  1  0
 27 45  1  0
 28 46  1  0
M  ISO  8  29  13  30  13  31  13  32  13  33  13  34  13  35  13  36  14
M  ISO  8  37  14  38  14  39  14  40  14  41  14  42  14  43  14  44  14
M  ISO  2  45  14  46  14
M  END
>  <minimizedAffinity>  (1) 
-7.22514534

>  <minimizedRMSD>  (1) 
0.637149215

$$$$
