
     RDKit          3D

 45 49  0  0  1  0  0  0  0  0999 V2000
   47.2090   34.3140   42.6970 N   0  0  0  0  0  0  0  0  0  0  0  0
   48.5710   33.8110   42.6050 C   0  0  0  0  0  0  0  0  0  0  0  0
   49.1200   34.8800   41.6850 C   0  0  0  0  0  0  0  0  0  0  0  0
   48.1000   34.8390   40.5760 C   0  0  0  0  0  0  0  0  0  0  0  0
   46.7930   34.6860   41.3180 C   0  0  1  0  0  0  0  0  0  0  0  0
   45.9820   33.5780   40.8510 C   0  0  0  0  0  0  0  0  0  0  0  0
   46.5180   32.3450   40.6640 N   0  0  0  0  0  0  0  0  0  0  0  0
   45.8400   31.2690   40.2220 C   0  0  0  0  0  0  0  0  0  0  0  0
   44.5380   31.4150   39.9450 N   0  0  0  0  0  0  0  0  0  0  0  0
   43.9610   32.5990   40.1100 C   0  0  0  0  0  0  0  0  0  0  0  0
   42.6050   32.6850   39.8100 C   0  0  0  0  0  0  0  0  0  0  0  0
   42.0010   33.9230   39.9870 C   0  0  0  0  0  0  0  0  0  0  0  0
   42.6520   35.0690   40.4380 C   0  0  0  0  0  0  0  0  0  0  0  0
   43.9960   34.8900   40.7110 C   0  0  0  0  0  0  0  0  0  0  0  0
   44.6410   33.7180   40.5620 C   0  0  0  0  0  0  0  0  0  0  0  0
   44.5460   35.4800   45.0330 C   0  0  0  0  0  0  0  0  0  0  0  0
   45.3340   35.4180   43.8940 C   0  0  0  0  0  0  0  0  0  0  0  0
   46.3430   34.4750   43.7990 C   0  0  0  0  0  0  0  0  0  0  0  0
   46.5190   33.6330   44.8540 N   0  0  0  0  0  0  0  0  0  0  0  0
   45.7470   33.6920   45.9780 C   0  0  0  0  0  0  0  0  0  0  0  0
   44.7620   34.6230   46.0500 N   0  0  0  0  0  0  0  0  0  0  0  0
   45.9940   32.7560   47.0710 C   0  0  0  0  0  0  0  0  0  0  0  0
   44.9960   32.5410   47.9930 C   0  0  0  0  0  0  0  0  0  0  0  0
   45.3570   31.6310   48.9820 C   0  0  0  0  0  0  0  0  0  0  0  0
   46.5940   30.9810   49.0610 C   0  0  0  0  0  0  0  0  0  0  0  0
   47.5320   31.2730   48.0740 C   0  0  0  0  0  0  0  0  0  0  0  0
   47.1970   32.1540   47.1070 N   0  0  0  0  0  0  0  0  0  0  0  0
   49.0787   33.7983   43.5808 H   0  0  0  0  0  0  0  0  0  0  0  0
   48.6828   32.7715   42.2629 H   0  0  0  0  0  0  0  0  0  0  0  0
   49.1465   35.8639   42.1761 H   0  0  0  0  0  0  0  0  0  0  0  0
   50.1577   34.7155   41.3594 H   0  0  0  0  0  0  0  0  0  0  0  0
   48.2773   33.9833   39.9079 H   0  0  0  0  0  0  0  0  0  0  0  0
   48.1285   35.7283   39.9293 H   0  0  0  0  0  0  0  0  0  0  0  0
   46.2022   35.6068   41.2032 H   0  0  0  0  0  0  0  0  0  0  0  0
   46.3410   30.2983   40.0922 H   0  0  0  0  0  0  0  0  0  0  0  0
   42.0383   31.8138   39.4497 H   0  0  0  0  0  0  0  0  0  0  0  0
   40.9291   34.0047   39.7538 H   0  0  0  0  0  0  0  0  0  0  0  0
   42.1405   36.0344   40.5661 H   0  0  0  0  0  0  0  0  0  0  0  0
   44.5713   35.7558   41.0708 H   0  0  0  0  0  0  0  0  0  0  0  0
   43.7440   36.2293   45.1065 H   0  0  0  0  0  0  0  0  0  0  0  0
   45.1573   36.1189   43.0649 H   0  0  0  0  0  0  0  0  0  0  0  0
   44.0149   33.0367   47.9527 H   0  0  0  0  0  0  0  0  0  0  0  0
   44.6137   31.4054   49.7608 H   0  0  0  0  0  0  0  0  0  0  0  0
   46.8161   30.2688   49.8694 H   0  0  0  0  0  0  0  0  0  0  0  0
   48.5235   30.7967   48.0819 H   0  0  0  0  0  0  0  0  0  0  0  0
  1 18  1  0
  2  1  1  0
  3  2  1  0
  4  5  1  0
  4  3  1  0
  5  1  1  0
  6  5  1  0
  7  6  2  0
  8  7  1  0
  9 10  1  0
  9  8  2  0
 10 15  2  0
 11 12  2  0
 11 10  1  0
 12 13  1  0
 13 14  2  0
 15 14  1  0
 15  6  1  0
 16 21  2  0
 17 16  1  0
 18 17  2  0
 18 19  1  0
 19 20  2  0
 20 21  1  0
 20 22  1  0
 22 27  1  0
 22 23  2  0
 23 24  1  0
 24 25  2  0
 26 25  1  0
 27 26  2  0
  2 28  1  0
  2 29  1  0
  3 30  1  0
  3 31  1  0
  4 32  1  0
  4 33  1  0
  5 34  1  1
  8 35  1  0
 11 36  1  0
 12 37  1  0
 13 38  1  0
 14 39  1  0
 16 40  1  0
 17 41  1  0
 23 42  1  0
 24 43  1  0
 25 44  1  0
 26 45  1  0
M  ISO  8  28  13  29  13  30  13  31  13  32  13  33  13  34  13  35  14
M  ISO  8  36  14  37  14  38  14  39  14  40  14  41  14  42  14  43  14
M  ISO  2  44  14  45  14
M  END
>  <minimizedAffinity>  (1) 
-7.09009123

>  <minimizedRMSD>  (1) 
0.586879253

$$$$
