
     RDKit          3D

 44 47  0  0  1  0  0  0  0  0999 V2000
   46.9250   34.3230   42.5120 N   0  0  0  0  0  0  0  0  0  0  0  0
   48.2190   33.6610   42.5530 C   0  0  0  0  0  0  0  0  0  0  0  0
   48.9050   34.4970   41.4980 C   0  0  0  0  0  0  0  0  0  0  0  0
   47.8970   34.3870   40.3670 C   0  0  0  0  0  0  0  0  0  0  0  0
   46.5700   34.5100   41.0810 C   0  0  1  0  0  0  0  0  0  0  0  0
   45.6450   33.4380   40.7680 C   0  0  0  0  0  0  0  0  0  0  0  0
   46.0560   32.1490   40.7210 N   0  0  0  0  0  0  0  0  0  0  0  0
   45.2590   31.0970   40.4320 C   0  0  0  0  0  0  0  0  0  0  0  0
   43.9730   31.3350   40.1730 N   0  0  0  0  0  0  0  0  0  0  0  0
   43.5180   32.5740   40.2050 C   0  0  0  0  0  0  0  0  0  0  0  0
   42.1720   32.7590   39.9310 C   0  0  0  0  0  0  0  0  0  0  0  0
   41.6920   34.0660   39.9670 C   0  0  0  0  0  0  0  0  0  0  0  0
   42.4590   35.1910   40.2550 C   0  0  0  0  0  0  0  0  0  0  0  0
   43.7890   34.9150   40.5160 C   0  0  0  0  0  0  0  0  0  0  0  0
   44.3190   33.6740   40.4990 C   0  0  0  0  0  0  0  0  0  0  0  0
   44.4820   36.2260   44.5890 C   0  0  0  0  0  0  0  0  0  0  0  0
   45.2880   35.9100   43.5020 C   0  0  0  0  0  0  0  0  0  0  0  0
   46.0630   34.7630   43.5510 C   0  0  0  0  0  0  0  0  0  0  0  0
   45.9950   33.9960   44.6710 N   0  0  0  0  0  0  0  0  0  0  0  0
   45.2030   34.3150   45.7270 C   0  0  0  0  0  0  0  0  0  0  0  0
   44.4450   35.4370   45.6760 N   0  0  0  0  0  0  0  0  0  0  0  0
   45.1460   33.5000   46.8890 N   0  0  0  0  0  0  0  0  0  0  0  0
   46.3220   32.3030   47.1910 S   0  0  0  0  0  0  0  0  0  0  0  0
   45.7330   31.3650   48.2320 O   0  0  0  0  0  0  0  0  0  0  0  0
   46.7490   31.5660   45.9800 O   0  0  0  0  0  0  0  0  0  0  0  0
   47.7030   32.9710   47.8860 O   0  0  0  0  0  0  0  0  0  0  0  0
   48.7031   33.7494   43.5368 H   0  0  0  0  0  0  0  0  0  0  0  0
   48.2148   32.5738   42.3854 H   0  0  0  0  0  0  0  0  0  0  0  0
   49.0365   35.5387   41.8261 H   0  0  0  0  0  0  0  0  0  0  0  0
   49.9231   34.1694   41.2409 H   0  0  0  0  0  0  0  0  0  0  0  0
   47.9819   33.4173   39.8547 H   0  0  0  0  0  0  0  0  0  0  0  0
   48.0398   35.1460   39.5837 H   0  0  0  0  0  0  0  0  0  0  0  0
   46.0894   35.4602   40.8051 H   0  0  0  0  0  0  0  0  0  0  0  0
   45.6599   30.0729   40.4110 H   0  0  0  0  0  0  0  0  0  0  0  0
   41.5120   31.9111   39.6955 H   0  0  0  0  0  0  0  0  0  0  0  0
   40.6246   34.2209   39.7512 H   0  0  0  0  0  0  0  0  0  0  0  0
   42.0442   36.2096   40.2734 H   0  0  0  0  0  0  0  0  0  0  0  0
   44.4551   35.7581   40.7517 H   0  0  0  0  0  0  0  0  0  0  0  0
   43.8648   37.1360   44.5591 H   0  0  0  0  0  0  0  0  0  0  0  0
   45.3102   36.5611   42.6157 H   0  0  0  0  0  0  0  0  0  0  0  0
   44.3787   33.6349   47.5628 H   0  0  0  0  0  0  0  0  0  0  0  0
   45.9451   31.7027   49.1381 H   0  0  0  0  0  0  0  0  0  0  0  0
   47.2269   30.7411   46.2471 H   0  0  0  0  0  0  0  0  0  0  0  0
   47.6269   32.9342   48.8724 H   0  0  0  0  0  0  0  0  0  0  0  0
  1  2  1  0
  1 18  1  0
  3  2  1  0
  4  5  1  0
  4  3  1  0
  5  1  1  0
  6  5  1  0
  7  6  2  0
  8  7  1  0
  9 10  1  0
  9  8  2  0
 10 15  2  0
 11 12  2  0
 11 10  1  0
 12 13  1  0
 13 14  2  0
 15 14  1  0
 15  6  1  0
 16 21  2  0
 17 18  2  0
 17 16  1  0
 18 19  1  0
 19 20  2  0
 20 22  1  0
 21 20  1  0
 22 23  1  0
 23 26  1  0
 23 24  1  0
 25 23  1  0
  2 27  1  0
  2 28  1  0
  3 29  1  0
  3 30  1  0
  4 31  1  0
  4 32  1  0
  5 33  1  1
  8 34  1  0
 11 35  1  0
 12 36  1  0
 13 37  1  0
 14 38  1  0
 16 39  1  0
 17 40  1  0
 22 41  1  0
 24 42  1  0
 25 43  1  0
 26 44  1  0
M  ISO  8  27  13  28  13  29  13  30  13  31  13  32  13  33  13  34  14
M  ISO  8  35  14  36  14  37  14  38  14  39  14  40  14  42   3  43   3
M  ISO  1  44   3
M  END
>  <minimizedAffinity>  (1) 
-6.94218063

>  <minimizedRMSD>  (1) 
0.60762471

$$$$
