
     RDKit          3D

 50 55  0  0  1  0  0  0  0  0999 V2000
   47.9170   34.0330   43.0760 N   0  0  0  0  0  0  0  0  0  0  0  0
   49.2960   33.6960   42.7010 C   0  0  0  0  0  0  0  0  0  0  0  0
   49.7690   35.1010   42.3920 C   0  0  0  0  0  0  0  0  0  0  0  0
   48.6940   35.5570   41.4400 C   0  0  0  0  0  0  0  0  0  0  0  0
   47.4290   35.0030   42.0620 C   0  0  1  0  0  0  0  0  0  0  0  0
   46.6250   34.2220   41.1430 C   0  0  0  0  0  0  0  0  0  0  0  0
   47.1820   33.2770   40.3460 N   0  0  0  0  0  0  0  0  0  0  0  0
   46.5040   32.5150   39.4640 C   0  0  0  0  0  0  0  0  0  0  0  0
   45.1760   32.6950   39.3570 N   0  0  0  0  0  0  0  0  0  0  0  0
   44.5790   33.6060   40.1140 C   0  0  0  0  0  0  0  0  0  0  0  0
   43.2080   33.7460   39.9620 C   0  0  0  0  0  0  0  0  0  0  0  0
   42.5850   34.7060   40.7600 C   0  0  0  0  0  0  0  0  0  0  0  0
   43.2330   35.5210   41.6840 C   0  0  0  0  0  0  0  0  0  0  0  0
   44.5950   35.3100   41.7640 C   0  0  0  0  0  0  0  0  0  0  0  0
   45.2690   34.4000   41.0280 C   0  0  0  0  0  0  0  0  0  0  0  0
   45.4380   33.8570   45.8350 C   0  0  0  0  0  0  0  0  0  0  0  0
   46.1760   34.3880   44.7870 C   0  0  0  0  0  0  0  0  0  0  0  0
   47.1200   33.5980   44.1470 C   0  0  0  0  0  0  0  0  0  0  0  0
   47.2830   32.3210   44.5820 N   0  0  0  0  0  0  0  0  0  0  0  0
   46.5620   31.8000   45.6090 C   0  0  0  0  0  0  0  0  0  0  0  0
   45.6420   32.5770   46.2280 N   0  0  0  0  0  0  0  0  0  0  0  0
   47.9100   29.7580   45.6180 C   0  0  0  0  0  0  0  0  0  0  0  0
   46.7770   30.4220   46.0380 C   0  0  0  0  0  0  0  0  0  0  0  0
   45.8420   29.8190   46.8540 C   0  0  0  0  0  0  0  0  0  0  0  0
   46.0370   28.5070   47.2680 C   0  0  0  0  0  0  0  0  0  0  0  0
   45.3410   27.6530   48.0400 N   0  0  0  0  0  0  0  0  0  0  0  0
   46.0390   26.4810   48.0900 C   0  0  0  0  0  0  0  0  0  0  0  0
   47.1920   26.5950   47.3400 C   0  0  0  0  0  0  0  0  0  0  0  0
   47.1870   27.8930   46.8170 C   0  0  0  0  0  0  0  0  0  0  0  0
   48.1600   28.4350   46.0030 C   0  0  0  0  0  0  0  0  0  0  0  0
   49.8554   33.2394   43.5308 H   0  0  0  0  0  0  0  0  0  0  0  0
   49.4141   32.9550   41.8966 H   0  0  0  0  0  0  0  0  0  0  0  0
   49.8004   35.7259   43.2967 H   0  0  0  0  0  0  0  0  0  0  0  0
   50.7904   35.1594   41.9878 H   0  0  0  0  0  0  0  0  0  0  0  0
   48.8546   35.1414   40.4343 H   0  0  0  0  0  0  0  0  0  0  0  0
   48.6686   36.6485   41.3062 H   0  0  0  0  0  0  0  0  0  0  0  0
   46.8134   35.8379   42.4281 H   0  0  0  0  0  0  0  0  0  0  0  0
   47.0237   31.7660   38.8484 H   0  0  0  0  0  0  0  0  0  0  0  0
   42.6401   33.1312   39.2482 H   0  0  0  0  0  0  0  0  0  0  0  0
   41.4973   34.8284   40.6505 H   0  0  0  0  0  0  0  0  0  0  0  0
   42.7062   36.2675   42.2965 H   0  0  0  0  0  0  0  0  0  0  0  0
   45.1691   35.9235   42.4740 H   0  0  0  0  0  0  0  0  0  0  0  0
   44.6866   34.4760   46.3471 H   0  0  0  0  0  0  0  0  0  0  0  0
   46.0139   35.4275   44.4659 H   0  0  0  0  0  0  0  0  0  0  0  0
   48.6306   30.2769   44.9687 H   0  0  0  0  0  0  0  0  0  0  0  0
   44.9478   30.3734   47.1748 H   0  0  0  0  0  0  0  0  0  0  0  0
   44.4445   27.8480   48.5082 H   0  0  0  0  0  0  0  0  0  0  0  0
   45.7296   25.5824   48.6438 H   0  0  0  0  0  0  0  0  0  0  0  0
   47.9593   25.8222   47.1848 H   0  0  0  0  0  0  0  0  0  0  0  0
   49.0531   27.8774   45.6846 H   0  0  0  0  0  0  0  0  0  0  0  0
  1 18  1  0
  2  1  1  0
  3  2  1  0
  4  5  1  0
  4  3  1  0
  5  1  1  0
  6  5  1  0
  7  6  2  0
  8  7  1  0
  9  8  2  0
  9 10  1  0
 10 15  2  0
 11 10  1  0
 11 12  2  0
 12 13  1  0
 13 14  2  0
 15  6  1  0
 15 14  1  0
 16 21  2  0
 17 16  1  0
 18 19  1  0
 18 17  2  0
 19 20  2  0
 20 23  1  0
 20 21  1  0
 22 30  2  0
 22 23  1  0
 23 24  2  0
 24 25  1  0
 25 26  1  0
 26 27  1  0
 28 27  2  0
 29 25  2  0
 29 28  1  0
 30 29  1  0
  2 31  1  0
  2 32  1  0
  3 33  1  0
  3 34  1  0
  4 35  1  0
  4 36  1  0
  5 37  1  1
  8 38  1  0
 11 39  1  0
 12 40  1  0
 13 41  1  0
 14 42  1  0
 16 43  1  0
 17 44  1  0
 22 45  1  0
 24 46  1  0
 26 47  1  0
 27 48  1  0
 28 49  1  0
 30 50  1  0
M  ISO  8  31  13  32  13  33  13  34  13  35  13  36  13  37  13  38  14
M  ISO  8  39  14  40  14  41  14  42  14  43  14  44  14  45  14  46  14
M  ISO  4  47   9  48  14  49  14  50  14
M  END
>  <minimizedAffinity>  (1) 
-6.86605358

>  <minimizedRMSD>  (1) 
2.61400628

$$$$
