
     RDKit          3D

 49 54  0  0  1  0  0  0  0  0999 V2000
   47.8230   34.1280   43.0680 N   0  0  0  0  0  0  0  0  0  0  0  0
   49.1970   33.7160   42.7680 C   0  0  0  0  0  0  0  0  0  0  0  0
   49.7310   35.0770   42.3770 C   0  0  0  0  0  0  0  0  0  0  0  0
   48.7020   35.5000   41.3550 C   0  0  0  0  0  0  0  0  0  0  0  0
   47.3980   35.0400   41.9740 C   0  0  1  0  0  0  0  0  0  0  0  0
   46.5950   34.2210   41.0850 C   0  0  0  0  0  0  0  0  0  0  0  0
   47.1560   33.2440   40.3280 N   0  0  0  0  0  0  0  0  0  0  0  0
   46.4790   32.4480   39.4770 C   0  0  0  0  0  0  0  0  0  0  0  0
   45.1520   32.6220   39.3580 N   0  0  0  0  0  0  0  0  0  0  0  0
   44.5520   33.5650   40.0770 C   0  0  0  0  0  0  0  0  0  0  0  0
   43.1800   33.6980   39.9150 C   0  0  0  0  0  0  0  0  0  0  0  0
   42.5630   34.6860   40.6720 C   0  0  0  0  0  0  0  0  0  0  0  0
   43.2040   35.5400   41.5650 C   0  0  0  0  0  0  0  0  0  0  0  0
   44.5650   35.3330   41.6570 C   0  0  0  0  0  0  0  0  0  0  0  0
   45.2410   34.3950   40.9600 C   0  0  0  0  0  0  0  0  0  0  0  0
   45.2330   34.2140   45.7270 C   0  0  0  0  0  0  0  0  0  0  0  0
   46.0170   34.6500   44.6680 C   0  0  0  0  0  0  0  0  0  0  0  0
   46.9750   33.7960   44.1410 C   0  0  0  0  0  0  0  0  0  0  0  0
   47.1050   32.5610   44.6900 N   0  0  0  0  0  0  0  0  0  0  0  0
   46.3360   32.1380   45.7290 C   0  0  0  0  0  0  0  0  0  0  0  0
   45.4010   32.9710   46.2420 N   0  0  0  0  0  0  0  0  0  0  0  0
   47.7440   30.4500   46.8050 C   0  0  0  0  0  0  0  0  0  0  0  0
   46.5150   30.8000   46.2840 C   0  0  0  0  0  0  0  0  0  0  0  0
   45.4550   29.9190   46.2760 C   0  0  0  0  0  0  0  0  0  0  0  0
   45.5710   28.6500   46.7850 C   0  0  0  0  0  0  0  0  0  0  0  0
   46.7920   28.2600   47.3180 C   0  0  0  0  0  0  0  0  0  0  0  0
   47.8630   29.1560   47.3240 C   0  0  0  0  0  0  0  0  0  0  0  0
   46.6440   26.9500   47.7570 O   0  0  0  0  0  0  0  0  0  0  0  0
   45.2490   26.6910   47.9260 C   0  0  0  0  0  0  0  0  0  0  0  0
   44.7170   27.5540   46.9210 O   0  0  0  0  0  0  0  0  0  0  0  0
   49.7113   33.3014   43.6476 H   0  0  0  0  0  0  0  0  0  0  0  0
   49.3139   32.9144   42.0238 H   0  0  0  0  0  0  0  0  0  0  0  0
   49.7557   35.7644   43.2354 H   0  0  0  0  0  0  0  0  0  0  0  0
   50.7666   35.0713   42.0061 H   0  0  0  0  0  0  0  0  0  0  0  0
   48.8775   35.0044   40.3888 H   0  0  0  0  0  0  0  0  0  0  0  0
   48.7229   36.5785   41.1395 H   0  0  0  0  0  0  0  0  0  0  0  0
   46.8017   35.9188   42.2606 H   0  0  0  0  0  0  0  0  0  0  0  0
   47.0002   31.6745   38.8939 H   0  0  0  0  0  0  0  0  0  0  0  0
   42.6123   33.0563   39.2251 H   0  0  0  0  0  0  0  0  0  0  0  0
   41.4755   34.8034   40.5559 H   0  0  0  0  0  0  0  0  0  0  0  0
   42.6737   36.3099   42.1446 H   0  0  0  0  0  0  0  0  0  0  0  0
   45.1370   35.9745   42.3435 H   0  0  0  0  0  0  0  0  0  0  0  0
   44.4693   34.8821   46.1519 H   0  0  0  0  0  0  0  0  0  0  0  0
   45.8806   35.6592   44.2521 H   0  0  0  0  0  0  0  0  0  0  0  0
   48.5891   31.1541   46.8120 H   0  0  0  0  0  0  0  0  0  0  0  0
   44.4927   30.2410   45.8513 H   0  0  0  0  0  0  0  0  0  0  0  0
   48.8262   28.8360   47.7481 H   0  0  0  0  0  0  0  0  0  0  0  0
   45.0024   25.6367   47.7320 H   0  0  0  0  0  0  0  0  0  0  0  0
   44.8633   26.8665   48.9411 H   0  0  0  0  0  0  0  0  0  0  0  0
  1 18  1  0
  2  1  1  0
  3  2  1  0
  4  5  1  0
  4  3  1  0
  5  1  1  0
  6  5  1  0
  7  6  2  0
  8  7  1  0
  9  8  2  0
  9 10  1  0
 10 15  2  0
 11 10  1  0
 11 12  2  0
 12 13  1  0
 13 14  2  0
 15  6  1  0
 15 14  1  0
 16 21  2  0
 17 16  1  0
 18 17  2  0
 18 19  1  0
 19 20  2  0
 20 21  1  0
 20 23  1  0
 22 27  2  0
 23 22  1  0
 24 23  2  0
 24 25  1  0
 25 30  1  0
 25 26  2  0
 26 27  1  0
 26 28  1  0
 28 29  1  0
 30 29  1  0
  2 31  1  0
  2 32  1  0
  3 33  1  0
  3 34  1  0
  4 35  1  0
  4 36  1  0
  5 37  1  1
  8 38  1  0
 11 39  1  0
 12 40  1  0
 13 41  1  0
 14 42  1  0
 16 43  1  0
 17 44  1  0
 22 45  1  0
 24 46  1  0
 27 47  1  0
 29 48  1  0
 29 49  1  0
M  ISO  8  31  13  32  13  33  13  34  13  35  13  36  13  37  13  38  14
M  ISO  8  39  14  40  14  41  14  42  14  43  14  44  14  45  14  46  14
M  ISO  3  47  14  48  13  49  13
M  END
>  <minimizedAffinity>  (1) 
-6.78899813

>  <minimizedRMSD>  (1) 
2.02145386

$$$$
