
     RDKit          3D

 26 26  0  0  0  0  0  0  0  0999 V2000
   44.9080   37.9440   44.6860 C   0  0  0  0  0  0  0  0  0  0  0  0
   45.3500   38.9510   43.9510 C   0  0  0  0  0  0  0  0  0  0  0  0
   45.0000   36.5980   44.1370 C   0  0  0  0  0  0  0  0  0  0  0  0
   45.1640   36.4610   42.7490 C   0  0  0  0  0  0  0  0  0  0  0  0
   45.2520   35.1620   42.2220 C   0  0  0  0  0  0  0  0  0  0  0  0
   45.1730   34.1120   43.0740 N   0  0  0  0  0  0  0  0  0  0  0  0
   45.0150   34.2780   44.4030 C   0  0  0  0  0  0  0  0  0  0  0  0
   44.9290   35.5070   44.9250 N   0  0  0  0  0  0  0  0  0  0  0  0
   45.3150   40.3630   44.3910 C   0  0  0  0  0  0  0  0  0  0  0  0
   44.6900   40.5030   45.6120 O   0  0  0  0  0  0  0  0  0  0  0  0
   42.7780   42.1950   45.8270 O   0  0  0  0  0  0  0  0  0  0  0  0
   44.2760   42.1110   45.9410 P   0  0  1  0  0  0  0  0  0  0  0  0
   44.7750   42.5660   47.4780 O   0  0  0  0  0  0  0  0  0  0  0  0
   44.9570   43.1980   44.8400 O   0  0  0  0  0  0  0  0  0  0  0  0
   45.2510   44.4210   45.4310 C   0  0  0  0  0  0  0  0  0  0  0  0
   44.4823   38.1184   45.6852 H   0  0  0  0  0  0  0  0  0  0  0  0
   45.7665   38.7262   42.9580 H   0  0  0  0  0  0  0  0  0  0  0  0
   45.2217   37.3435   42.0949 H   0  0  0  0  0  0  0  0  0  0  0  0
   45.3821   35.0010   41.1417 H   0  0  0  0  0  0  0  0  0  0  0  0
   44.9565   33.3986   45.0612 H   0  0  0  0  0  0  0  0  0  0  0  0
   46.3466   40.7358   44.4741 H   0  0  0  0  0  0  0  0  0  0  0  0
   44.7454   40.9392   43.6470 H   0  0  0  0  0  0  0  0  0  0  0  0
   44.2416   42.0797   48.1556 H   0  0  0  0  0  0  0  0  0  0  0  0
   45.2255   44.3149   46.5256 H   0  0  0  0  0  0  0  0  0  0  0  0
   46.2534   44.7481   45.1176 H   0  0  0  0  0  0  0  0  0  0  0  0
   44.5068   45.1680   45.1176 H   0  0  0  0  0  0  0  0  0  0  0  0
  2  9  1  0
  2  1  2  0
  3  1  1  0
  3  8  2  0
  4  3  1  0
  5  4  2  0
  5  6  1  0
  6  7  2  0
  7  8  1  0
  9 10  1  0
 10 12  1  0
 12 11  2  0
 12 13  1  0
 14 15  1  0
 14 12  1  0
  1 16  1  0
  2 17  1  0
  4 18  1  0
  5 19  1  0
  7 20  1  0
  9 21  1  0
  9 22  1  0
 13 23  1  0
 15 24  1  0
 15 25  1  0
 15 26  1  0
M  ISO  8  18  14  19  14  20  14  21   8  22   8  23   3  24   8  25   8
M  ISO  1  26   8
M  END
>  <minimizedAffinity>  (1) 
-2.23434925

>  <minimizedRMSD>  (1) 
0.32217887

$$$$
