
     RDKit          3D

 35 38  0  0  1  0  0  0  0  0999 V2000
   48.1630   33.4580   43.5490 N   0  0  0  0  0  0  0  0  0  0  0  0
   49.2750   33.4580   42.7220 C   0  0  0  0  0  0  0  0  0  0  0  0
   50.4440   33.0300   42.9240 O   0  0  0  0  0  0  0  0  0  0  0  0
   46.3440   32.3140   44.7850 C   0  0  1  0  0  0  0  0  0  0  0  0
   46.6550   31.4730   43.6900 C   0  0  0  0  0  0  0  0  0  0  0  0
   47.7670   32.3260   44.3270 C   0  0  1  0  0  0  0  0  0  0  0  0
   45.0290   33.9010   43.2250 C   0  0  0  0  0  0  0  0  0  0  0  0
   45.5260   33.5760   44.5090 C   0  0  0  0  0  0  0  0  0  0  0  0
   45.2670   34.4540   45.5350 C   0  0  0  0  0  0  0  0  0  0  0  0
   44.5600   35.5790   45.2790 N   0  0  0  0  0  0  0  0  0  0  0  0
   44.0900   35.8820   44.0450 C   0  0  0  0  0  0  0  0  0  0  0  0
   44.3370   35.0070   42.9820 N   0  0  0  0  0  0  0  0  0  0  0  0
   49.1760   34.0400   41.3200 C   0  0  2  0  0  0  0  0  0  0  0  0
   48.7570   35.5350   41.2100 C   0  0  0  0  0  0  0  0  0  0  0  0
   47.8840   34.4050   40.7350 C   0  0  1  0  0  0  0  0  0  0  0  0
   47.7090   34.1070   39.3330 C   0  0  0  0  0  0  0  0  0  0  0  0
   48.4130   34.5270   38.2640 C   0  0  0  0  0  0  0  0  0  0  0  0
   48.0700   34.1160   36.9960 C   0  0  0  0  0  0  0  0  0  0  0  0
   46.9880   33.2590   36.8270 C   0  0  0  0  0  0  0  0  0  0  0  0
   46.4260   33.0320   38.6100 S   0  0  0  0  0  0  0  0  0  0  0  0
   47.5944   34.3150   43.6058 H   0  0  0  0  0  0  0  0  0  0  0  0
   45.8551   32.1303   45.7531 H   0  0  0  0  0  0  0  0  0  0  0  0
   46.2817   31.7204   42.6853 H   0  0  0  0  0  0  0  0  0  0  0  0
   46.5276   30.4015   43.4761 H   0  0  0  0  0  0  0  0  0  0  0  0
   48.7530   32.1639   44.7869 H   0  0  0  0  0  0  0  0  0  0  0  0
   45.2243   33.2081   42.3933 H   0  0  0  0  0  0  0  0  0  0  0  0
   45.6302   34.2443   46.5519 H   0  0  0  0  0  0  0  0  0  0  0  0
   43.5193   36.8078   43.8805 H   0  0  0  0  0  0  0  0  0  0  0  0
   50.0069   33.4073   40.9747 H   0  0  0  0  0  0  0  0  0  0  0  0
   48.4885   36.1067   42.1106 H   0  0  0  0  0  0  0  0  0  0  0  0
   49.1827   36.4489   40.7700 H   0  0  0  0  0  0  0  0  0  0  0  0
   46.8279   34.1725   40.9365 H   0  0  0  0  0  0  0  0  0  0  0  0
   49.2686   35.2037   38.4056 H   0  0  0  0  0  0  0  0  0  0  0  0
   48.6460   34.4620   36.1250 H   0  0  0  0  0  0  0  0  0  0  0  0
   46.5731   32.8302   35.9029 H   0  0  0  0  0  0  0  0  0  0  0  0
  1  6  1  0
  2  3  2  0
  2  1  1  0
  5  6  1  0
  5  4  1  0
  6  4  1  0
  7  8  2  0
  8  4  1  0
  8  9  1  0
 10  9  2  0
 11 10  1  0
 12  7  1  0
 12 11  2  0
 13  2  1  0
 14 13  1  0
 15 14  1  0
 15 13  1  0
 16 15  1  0
 17 16  2  0
 18 17  1  0
 19 18  2  0
 19 20  1  0
 20 16  1  0
  1 21  1  0
  4 22  1  1
  5 23  1  0
  5 24  1  0
  6 25  1  1
  7 26  1  0
  9 27  1  0
 11 28  1  0
 13 29  1  6
 14 30  1  0
 14 31  1  0
 15 32  1  1
 17 33  1  0
 18 34  1  0
 19 35  1  0
M  ISO  8  22  13  23  13  24  13  25  13  26  14  27  14  28  14  29  13
M  ISO  6  30  13  31  13  32  13  33  14  34  14  35  14
M  END
>  <minimizedAffinity>  (1) 
-4.99123764

>  <minimizedRMSD>  (1) 
0.943067789

$$$$
