
     RDKit          3D

 30 32  0  0  0  0  0  0  0  0999 V2000
   45.2990   33.2850   41.0860 F   0  0  0  0  0  0  0  0  0  0  0  0
   46.4660   33.9700   40.9570 C   0  0  0  0  0  0  0  0  0  0  0  0
   46.9390   34.7940   41.9480 C   0  0  0  0  0  0  0  0  0  0  0  0
   48.1230   35.4300   41.7040 C   0  0  0  0  0  0  0  0  0  0  0  0
   48.8530   35.3010   40.5590 C   0  0  0  0  0  0  0  0  0  0  0  0
   48.3410   34.4650   39.5930 C   0  0  0  0  0  0  0  0  0  0  0  0
   47.1560   33.7930   39.7700 C   0  0  0  0  0  0  0  0  0  0  0  0
   44.4870   36.0360   44.5570 C   0  0  0  0  0  0  0  0  0  0  0  0
   45.2370   35.9460   43.3780 C   0  0  0  0  0  0  0  0  0  0  0  0
   46.1420   34.9180   43.1660 C   0  0  0  0  0  0  0  0  0  0  0  0
   46.2490   34.0130   44.1790 N   0  0  0  0  0  0  0  0  0  0  0  0
   45.5290   34.1000   45.3100 C   0  0  0  0  0  0  0  0  0  0  0  0
   44.6650   35.0920   45.4980 N   0  0  0  0  0  0  0  0  0  0  0  0
   47.3230   34.5890   37.1660 F   0  0  0  0  0  0  0  0  0  0  0  0
   46.7720   33.4060   37.4330 C   0  0  0  0  0  0  0  0  0  0  0  0
   46.6340   32.9010   38.7090 C   0  0  0  0  0  0  0  0  0  0  0  0
   46.0770   31.6900   39.0710 C   0  0  0  0  0  0  0  0  0  0  0  0
   45.6040   30.8980   38.0190 C   0  0  0  0  0  0  0  0  0  0  0  0
   45.7270   31.3730   36.7310 C   0  0  0  0  0  0  0  0  0  0  0  0
   46.2900   32.5900   36.4030 C   0  0  0  0  0  0  0  0  0  0  0  0
   48.5162   36.0943   42.4876 H   0  0  0  0  0  0  0  0  0  0  0  0
   49.8023   35.8377   40.4151 H   0  0  0  0  0  0  0  0  0  0  0  0
   48.8962   34.3312   38.6529 H   0  0  0  0  0  0  0  0  0  0  0  0
   43.7711   36.8572   44.7094 H   0  0  0  0  0  0  0  0  0  0  0  0
   45.1044   36.7116   42.5994 H   0  0  0  0  0  0  0  0  0  0  0  0
   45.6568   33.3379   46.0929 H   0  0  0  0  0  0  0  0  0  0  0  0
   46.0095   31.3683   40.1207 H   0  0  0  0  0  0  0  0  0  0  0  0
   45.1443   29.9182   38.2155 H   0  0  0  0  0  0  0  0  0  0  0  0
   45.3524   30.7417   35.9117 H   0  0  0  0  0  0  0  0  0  0  0  0
   46.3584   32.9119   35.3534 H   0  0  0  0  0  0  0  0  0  0  0  0
  2  1  1  0
  2  3  2  0
  3 10  1  0
  4  3  1  0
  5  4  2  0
  6  7  2  0
  6  5  1  0
  7  2  1  0
  8 13  2  0
  9  8  1  0
 10  9  2  0
 10 11  1  0
 11 12  2  0
 12 13  1  0
 14 15  1  0
 15 16  2  0
 16 17  1  0
 16  7  1  0
 18 17  2  0
 19 18  1  0
 20 19  2  0
 20 15  1  0
  4 21  1  0
  5 22  1  0
  6 23  1  0
  8 24  1  0
  9 25  1  0
 12 26  1  0
 17 27  1  0
 18 28  1  0
 19 29  1  0
 20 30  1  0
M  ISO  8  21  14  22  14  23  14  24  14  25  14  26  14  27  14  28  14
M  ISO  2  29  14  30  14
M  END
>  <minimizedAffinity>  (1) 
-5.78866768

>  <minimizedRMSD>  (1) 
0.292188913

$$$$
