
     RDKit          3D

 26 27  0  0  0  0  0  0  0  0999 V2000
   45.0940   33.3850   41.1450 F   0  0  0  0  0  0  0  0  0  0  0  0
   46.2990   34.0200   41.0050 C   0  0  0  0  0  0  0  0  0  0  0  0
   46.8380   34.7710   42.0200 C   0  0  0  0  0  0  0  0  0  0  0  0
   48.0520   35.3740   41.7800 C   0  0  0  0  0  0  0  0  0  0  0  0
   48.7370   35.2620   40.6000 C   0  0  0  0  0  0  0  0  0  0  0  0
   48.1440   34.4890   39.6090 C   0  0  0  0  0  0  0  0  0  0  0  0
   46.9240   33.8610   39.7970 C   0  0  0  0  0  0  0  0  0  0  0  0
   44.4800   35.9490   44.7420 C   0  0  0  0  0  0  0  0  0  0  0  0
   45.1810   35.8850   43.5280 C   0  0  0  0  0  0  0  0  0  0  0  0
   46.0900   34.8740   43.2670 C   0  0  0  0  0  0  0  0  0  0  0  0
   46.2470   33.9580   44.2710 N   0  0  0  0  0  0  0  0  0  0  0  0
   45.5760   34.0250   45.4280 C   0  0  0  0  0  0  0  0  0  0  0  0
   44.7030   35.0020   45.6700 N   0  0  0  0  0  0  0  0  0  0  0  0
   46.3160   33.0410   38.7150 C   0  0  0  0  0  0  0  0  0  0  0  0
   46.8580   33.3930   37.3700 C   0  0  0  0  0  0  0  0  0  0  0  0
   48.4972   35.9806   42.5824 H   0  0  0  0  0  0  0  0  0  0  0  0
   49.7064   35.7581   40.4444 H   0  0  0  0  0  0  0  0  0  0  0  0
   48.6600   34.3722   38.6446 H   0  0  0  0  0  0  0  0  0  0  0  0
   43.7608   36.7596   44.9310 H   0  0  0  0  0  0  0  0  0  0  0  0
   45.0038   36.6572   42.7649 H   0  0  0  0  0  0  0  0  0  0  0  0
   45.7494   33.2564   46.1956 H   0  0  0  0  0  0  0  0  0  0  0  0
   46.5250   31.9796   38.9147 H   0  0  0  0  0  0  0  0  0  0  0  0
   45.2343   33.2408   38.7065 H   0  0  0  0  0  0  0  0  0  0  0  0
   47.7751   33.9886   37.4887 H   0  0  0  0  0  0  0  0  0  0  0  0
   47.0884   32.4717   36.8149 H   0  0  0  0  0  0  0  0  0  0  0  0
   46.1100   33.9782   36.8149 H   0  0  0  0  0  0  0  0  0  0  0  0
  2  1  1  0
  2  3  2  0
  3 10  1  0
  4  3  1  0
  5  4  2  0
  6  7  2  0
  6  5  1  0
  7  2  1  0
  8 13  2  0
  9  8  1  0
 10  9  2  0
 10 11  1  0
 11 12  2  0
 12 13  1  0
 14  7  1  0
 15 14  1  0
  4 16  1  0
  5 17  1  0
  6 18  1  0
  8 19  1  0
  9 20  1  0
 12 21  1  0
 14 22  1  0
 14 23  1  0
 15 24  1  0
 15 25  1  0
 15 26  1  0
M  ISO  8  16  14  17  14  18  14  19  14  20  14  21  14  22   8  23   8
M  ISO  3  24   8  25   8  26   8
M  END
>  <minimizedAffinity>  (1) 
-5.21249151

>  <minimizedRMSD>  (1) 
0.0579294562

$$$$
