
     RDKit          3D

 22 23  0  0  0  0  0  0  0  0999 V2000
   45.1050   33.3410   41.1780 F   0  0  0  0  0  0  0  0  0  0  0  0
   46.2960   33.9900   41.0250 C   0  0  0  0  0  0  0  0  0  0  0  0
   46.8330   34.7590   42.0350 C   0  0  0  0  0  0  0  0  0  0  0  0
   48.0340   35.3640   41.7720 C   0  0  0  0  0  0  0  0  0  0  0  0
   48.7160   35.2530   40.5940 C   0  0  0  0  0  0  0  0  0  0  0  0
   48.1390   34.4740   39.6180 C   0  0  0  0  0  0  0  0  0  0  0  0
   46.9320   33.8360   39.8160 C   0  0  0  0  0  0  0  0  0  0  0  0
   44.4800   35.9540   44.7520 C   0  0  0  0  0  0  0  0  0  0  0  0
   45.1810   35.8810   43.5400 C   0  0  0  0  0  0  0  0  0  0  0  0
   46.0850   34.8640   43.2880 C   0  0  0  0  0  0  0  0  0  0  0  0
   46.2410   33.9580   44.2810 N   0  0  0  0  0  0  0  0  0  0  0  0
   45.5720   34.0260   45.4380 C   0  0  0  0  0  0  0  0  0  0  0  0
   44.6940   35.0180   45.6770 N   0  0  0  0  0  0  0  0  0  0  0  0
   46.3350   33.0210   38.7860 N   0  0  0  0  0  0  0  0  0  0  0  0
   48.4799   35.9822   42.5650 H   0  0  0  0  0  0  0  0  0  0  0  0
   49.6784   35.7610   40.4337 H   0  0  0  0  0  0  0  0  0  0  0  0
   48.6542   34.3566   38.6532 H   0  0  0  0  0  0  0  0  0  0  0  0
   43.7655   36.7697   44.9366 H   0  0  0  0  0  0  0  0  0  0  0  0
   45.0085   36.6495   42.7721 H   0  0  0  0  0  0  0  0  0  0  0  0
   45.7425   33.2581   46.2069 H   0  0  0  0  0  0  0  0  0  0  0  0
   45.4329   32.5543   38.9568 H   0  0  0  0  0  0  0  0  0  0  0  0
   46.8109   32.9059   37.8798 H   0  0  0  0  0  0  0  0  0  0  0  0
  2  1  1  0
  2  3  2  0
  3 10  1  0
  4  3  1  0
  5  4  2  0
  6  7  2  0
  6  5  1  0
  7  2  1  0
  8 13  2  0
  9  8  1  0
 10  9  2  0
 10 11  1  0
 11 12  2  0
 12 13  1  0
 14  7  1  0
  4 15  1  0
  5 16  1  0
  6 17  1  0
  8 18  1  0
  9 19  1  0
 12 20  1  0
 14 21  1  0
 14 22  1  0
M  ISO  6  15  14  16  14  17  14  18  14  19  14  20  14
M  END
>  <minimizedAffinity>  (1) 
-5.15507174

>  <minimizedRMSD>  (1) 
0.00676100282

$$$$
