
     RDKit          3D

 22 23  0  0  0  0  0  0  0  0999 V2000
   45.1080   33.3650   41.1620 F   0  0  0  0  0  0  0  0  0  0  0  0
   46.3080   34.0100   41.0160 C   0  0  0  0  0  0  0  0  0  0  0  0
   46.8390   34.7640   42.0170 C   0  0  0  0  0  0  0  0  0  0  0  0
   48.0420   35.3700   41.7780 C   0  0  0  0  0  0  0  0  0  0  0  0
   48.7290   35.2600   40.5980 C   0  0  0  0  0  0  0  0  0  0  0  0
   48.1490   34.4860   39.6140 C   0  0  0  0  0  0  0  0  0  0  0  0
   46.9440   33.8580   39.8110 C   0  0  0  0  0  0  0  0  0  0  0  0
   44.4780   35.9500   44.7440 C   0  0  0  0  0  0  0  0  0  0  0  0
   45.1770   35.8810   43.5370 C   0  0  0  0  0  0  0  0  0  0  0  0
   46.0880   34.8700   43.2720 C   0  0  0  0  0  0  0  0  0  0  0  0
   46.2510   33.9500   44.2720 N   0  0  0  0  0  0  0  0  0  0  0  0
   45.5730   34.0270   45.4310 C   0  0  0  0  0  0  0  0  0  0  0  0
   44.7020   35.0090   45.6650 N   0  0  0  0  0  0  0  0  0  0  0  0
   46.3490   33.0440   38.7540 C   0  0  0  0  0  0  0  0  0  0  0  0
   46.4660   33.3390   37.5460 O   0  0  0  0  0  0  0  0  0  0  0  0
   48.4830   35.9808   42.5795 H   0  0  0  0  0  0  0  0  0  0  0  0
   49.6946   35.7635   40.4427 H   0  0  0  0  0  0  0  0  0  0  0  0
   48.6641   34.3693   38.6491 H   0  0  0  0  0  0  0  0  0  0  0  0
   43.7591   36.7611   44.9320 H   0  0  0  0  0  0  0  0  0  0  0  0
   44.9994   36.6524   42.7732 H   0  0  0  0  0  0  0  0  0  0  0  0
   45.7409   33.2622   46.2036 H   0  0  0  0  0  0  0  0  0  0  0  0
   45.7805   32.1437   39.0304 H   0  0  0  0  0  0  0  0  0  0  0  0
  2  1  1  0
  2  3  2  0
  3 10  1  0
  4  3  1  0
  5  4  2  0
  6  7  2  0
  6  5  1  0
  7  2  1  0
  8 13  2  0
  9  8  1  0
 10  9  2  0
 10 11  1  0
 11 12  2  0
 12 13  1  0
 14  7  1  0
 15 14  2  0
  4 16  1  0
  5 17  1  0
  6 18  1  0
  8 19  1  0
  9 20  1  0
 12 21  1  0
 14 22  1  0
M  ISO  7  16  14  17  14  18  14  19  14  20  14  21  14  22   6
M  END
>  <minimizedAffinity>  (1) 
-5.15222883

>  <minimizedRMSD>  (1) 
0.192507684

$$$$
