
     RDKit          3D

 21 22  0  0  0  0  0  0  0  0999 V2000
   45.0790   33.3750   41.1620 F   0  0  0  0  0  0  0  0  0  0  0  0
   46.2830   34.0120   41.0190 C   0  0  0  0  0  0  0  0  0  0  0  0
   46.8250   34.7660   42.0340 C   0  0  0  0  0  0  0  0  0  0  0  0
   48.0350   35.3600   41.7820 C   0  0  0  0  0  0  0  0  0  0  0  0
   48.7150   35.2440   40.6000 C   0  0  0  0  0  0  0  0  0  0  0  0
   48.1300   34.4790   39.6160 C   0  0  0  0  0  0  0  0  0  0  0  0
   46.9020   33.8470   39.8030 C   0  0  0  0  0  0  0  0  0  0  0  0
   44.4770   35.9550   44.7560 C   0  0  0  0  0  0  0  0  0  0  0  0
   45.1760   35.8810   43.5490 C   0  0  0  0  0  0  0  0  0  0  0  0
   46.0810   34.8720   43.2800 C   0  0  0  0  0  0  0  0  0  0  0  0
   46.2440   33.9520   44.2810 N   0  0  0  0  0  0  0  0  0  0  0  0
   45.5670   34.0320   45.4400 C   0  0  0  0  0  0  0  0  0  0  0  0
   44.6970   35.0170   45.6760 N   0  0  0  0  0  0  0  0  0  0  0  0
   46.3330   33.0800   38.7940 O   0  0  0  0  0  0  0  0  0  0  0  0
   48.4873   35.9676   42.5797 H   0  0  0  0  0  0  0  0  0  0  0  0
   49.6846   35.7393   40.4433 H   0  0  0  0  0  0  0  0  0  0  0  0
   48.6479   34.3631   38.6525 H   0  0  0  0  0  0  0  0  0  0  0  0
   43.7612   36.7692   44.9426 H   0  0  0  0  0  0  0  0  0  0  0  0
   44.9999   36.6532   42.7856 H   0  0  0  0  0  0  0  0  0  0  0  0
   45.7340   33.2672   46.2127 H   0  0  0  0  0  0  0  0  0  0  0  0
   45.4600   32.6370   38.9415 H   0  0  0  0  0  0  0  0  0  0  0  0
  2  1  1  0
  2  3  2  0
  3 10  1  0
  4  3  1  0
  5  4  2  0
  6  7  2  0
  6  5  1  0
  7  2  1  0
  8 13  2  0
  9  8  1  0
 10  9  2  0
 10 11  1  0
 11 12  2  0
 12 13  1  0
 14  7  1  0
  4 15  1  0
  5 16  1  0
  6 17  1  0
  8 18  1  0
  9 19  1  0
 12 20  1  0
 14 21  1  0
M  ISO  7  15  14  16  14  17  14  18  14  19  14  20  14  21   3
M  END
>  <minimizedAffinity>  (1) 
-5.15041447

>  <minimizedRMSD>  (1) 
0.017382551

$$$$
