
     RDKit          3D

 37 40  0  0  0  0  0  0  0  0999 V2000
   45.2830   33.5260   41.0650 F   0  0  0  0  0  0  0  0  0  0  0  0
   46.4890   34.1740   40.9940 C   0  0  0  0  0  0  0  0  0  0  0  0
   46.9780   34.8720   42.0690 C   0  0  0  0  0  0  0  0  0  0  0  0
   48.1920   35.4890   41.9090 C   0  0  0  0  0  0  0  0  0  0  0  0
   48.9270   35.4450   40.7530 C   0  0  0  0  0  0  0  0  0  0  0  0
   48.3840   34.7310   39.7150 C   0  0  0  0  0  0  0  0  0  0  0  0
   47.1740   34.0920   39.8120 C   0  0  0  0  0  0  0  0  0  0  0  0
   44.4820   35.8890   44.7380 C   0  0  0  0  0  0  0  0  0  0  0  0
   45.2290   35.8870   43.5530 C   0  0  0  0  0  0  0  0  0  0  0  0
   46.1800   34.9060   43.2950 C   0  0  0  0  0  0  0  0  0  0  0  0
   46.3340   33.9510   44.2700 N   0  0  0  0  0  0  0  0  0  0  0  0
   45.6020   33.9760   45.4030 C   0  0  0  0  0  0  0  0  0  0  0  0
   44.6960   34.9150   45.6430 N   0  0  0  0  0  0  0  0  0  0  0  0
   46.6170   33.3390   38.6930 C   0  0  0  0  0  0  0  0  0  0  0  0
   45.3580   32.8210   38.5860 C   0  0  0  0  0  0  0  0  0  0  0  0
   45.2480   32.1830   37.3620 C   0  0  0  0  0  0  0  0  0  0  0  0
   46.4380   32.3280   36.7540 N   0  0  0  0  0  0  0  0  0  0  0  0
   47.2500   33.0150   37.5470 N   0  0  0  0  0  0  0  0  0  0  0  0
   46.7780   31.8260   35.4660 C   0  0  0  0  0  0  0  0  0  0  0  0
   45.9510   30.9210   34.8340 C   0  0  0  0  0  0  0  0  0  0  0  0
   46.2200   30.3910   33.5790 C   0  0  0  0  0  0  0  0  0  0  0  0
   47.3770   30.8290   32.9980 C   0  0  0  0  0  0  0  0  0  0  0  0
   48.2500   31.7310   33.5730 C   0  0  0  0  0  0  0  0  0  0  0  0
   47.9360   32.2380   34.8380 C   0  0  0  0  0  0  0  0  0  0  0  0
   48.6008   36.0535   42.7600 H   0  0  0  0  0  0  0  0  0  0  0  0
   49.8981   35.9538   40.6626 H   0  0  0  0  0  0  0  0  0  0  0  0
   48.9405   34.6685   38.7682 H   0  0  0  0  0  0  0  0  0  0  0  0
   43.7334   36.6727   44.9261 H   0  0  0  0  0  0  0  0  0  0  0  0
   45.0593   36.6797   42.8095 H   0  0  0  0  0  0  0  0  0  0  0  0
   45.7621   33.1894   46.1550 H   0  0  0  0  0  0  0  0  0  0  0  0
   44.5649   32.8977   39.3444 H   0  0  0  0  0  0  0  0  0  0  0  0
   44.3638   31.6618   36.9664 H   0  0  0  0  0  0  0  0  0  0  0  0
   45.0328   30.6033   35.3497 H   0  0  0  0  0  0  0  0  0  0  0  0
   45.5499   29.6702   33.0876 H   0  0  0  0  0  0  0  0  0  0  0  0
   47.6304   30.4353   32.0026 H   0  0  0  0  0  0  0  0  0  0  0  0
   49.1668   32.0421   33.0508 H   0  0  0  0  0  0  0  0  0  0  0  0
   48.6064   32.9592   35.3284 H   0  0  0  0  0  0  0  0  0  0  0  0
  2  1  1  0
  2  3  2  0
  3 10  1  0
  4  3  1  0
  5  4  2  0
  6  7  2  0
  6  5  1  0
  7  2  1  0
  8 13  2  0
  9  8  1  0
 10  9  2  0
 10 11  1  0
 11 12  2  0
 12 13  1  0
 14  7  1  0
 15 14  1  0
 16 15  2  0
 17 16  1  0
 17 18  1  0
 18 14  2  0
 19 17  1  0
 20 19  2  0
 21 20  1  0
 22 23  1  0
 22 21  2  0
 23 24  2  0
 24 19  1  0
  4 25  1  0
  5 26  1  0
  6 27  1  0
  8 28  1  0
  9 29  1  0
 12 30  1  0
 15 31  1  0
 16 32  1  0
 20 33  1  0
 21 34  1  0
 22 35  1  0
 23 36  1  0
 24 37  1  0
M  ISO  8  25  14  26  14  27  14  28  14  29  14  30  14  31  14  32  14
M  ISO  5  33  14  34  14  35  14  36  14  37  14
M  END
>  <minimizedAffinity>  (1) 
-6.2743516

>  <minimizedRMSD>  (1) 
2.46534514

$$$$
