
     RDKit          3D

 30 32  0  0  0  0  0  0  0  0999 V2000
   45.4280   33.0070   41.4290 F   0  0  0  0  0  0  0  0  0  0  0  0
   46.5050   33.8050   41.2150 C   0  0  0  0  0  0  0  0  0  0  0  0
   46.8950   34.7420   42.1450 C   0  0  0  0  0  0  0  0  0  0  0  0
   47.9960   35.5080   41.8480 C   0  0  0  0  0  0  0  0  0  0  0  0
   48.7160   35.3840   40.6810 C   0  0  0  0  0  0  0  0  0  0  0  0
   48.2880   34.4420   39.7920 C   0  0  0  0  0  0  0  0  0  0  0  0
   47.1890   33.6400   40.0310 C   0  0  0  0  0  0  0  0  0  0  0  0
   44.4590   35.9310   44.7970 C   0  0  0  0  0  0  0  0  0  0  0  0
   45.1900   35.8560   43.6060 C   0  0  0  0  0  0  0  0  0  0  0  0
   46.1140   34.8520   43.3750 C   0  0  0  0  0  0  0  0  0  0  0  0
   46.2660   33.9360   44.3880 N   0  0  0  0  0  0  0  0  0  0  0  0
   45.5470   34.0260   45.5370 C   0  0  0  0  0  0  0  0  0  0  0  0
   44.6620   35.0010   45.7400 N   0  0  0  0  0  0  0  0  0  0  0  0
   46.7470   32.6430   39.0770 C   0  0  0  0  0  0  0  0  0  0  0  0
   46.9050   31.2710   39.1780 C   0  0  0  0  0  0  0  0  0  0  0  0
   46.3380   30.6840   38.0480 C   0  0  0  0  0  0  0  0  0  0  0  0
   45.8610   31.7060   37.3070 N   0  0  0  0  0  0  0  0  0  0  0  0
   46.0970   32.8720   37.9070 N   0  0  0  0  0  0  0  0  0  0  0  0
   45.1670   31.7040   36.0250 C   0  0  0  0  0  0  0  0  0  0  0  0
   45.2810   32.9600   35.4180 F   0  0  0  0  0  0  0  0  0  0  0  0
   43.8000   31.4920   36.2060 F   0  0  0  0  0  0  0  0  0  0  0  0
   45.7340   30.7080   35.2550 F   0  0  0  0  0  0  0  0  0  0  0  0
   48.3197   36.2608   42.5819 H   0  0  0  0  0  0  0  0  0  0  0  0
   49.5939   36.0141   40.4754 H   0  0  0  0  0  0  0  0  0  0  0  0
   48.8393   34.3162   38.8485 H   0  0  0  0  0  0  0  0  0  0  0  0
   43.7303   36.7395   44.9563 H   0  0  0  0  0  0  0  0  0  0  0  0
   45.0252   36.6181   42.8301 H   0  0  0  0  0  0  0  0  0  0  0  0
   45.7000   33.2717   46.3229 H   0  0  0  0  0  0  0  0  0  0  0  0
   47.3933   30.7369   40.0064 H   0  0  0  0  0  0  0  0  0  0  0  0
   46.2895   29.6112   37.8099 H   0  0  0  0  0  0  0  0  0  0  0  0
  2  1  1  0
  2  3  2  0
  3 10  1  0
  4  3  1  0
  5  4  2  0
  6  7  2  0
  6  5  1  0
  7  2  1  0
  8 13  2  0
  9  8  1  0
 10  9  2  0
 10 11  1  0
 11 12  2  0
 12 13  1  0
 14 15  1  0
 14  7  1  0
 16 15  2  0
 17 18  1  0
 17 16  1  0
 18 14  2  0
 19 21  1  0
 19 17  1  0
 20 19  1  0
 22 19  1  0
  4 23  1  0
  5 24  1  0
  6 25  1  0
  8 26  1  0
  9 27  1  0
 12 28  1  0
 15 29  1  0
 16 30  1  0
M  ISO  8  23  14  24  14  25  14  26  14  27  14  28  14  29  14  30  14
M  END
>  <minimizedAffinity>  (1) 
-5.51663876

>  <minimizedRMSD>  (1) 
0.868645668

$$$$
