
     RDKit          3D

 30 32  0  0  0  0  0  0  0  0999 V2000
   45.3290   33.0510   41.4000 F   0  0  0  0  0  0  0  0  0  0  0  0
   46.4240   33.8220   41.1940 C   0  0  0  0  0  0  0  0  0  0  0  0
   46.8500   34.7190   42.1440 C   0  0  0  0  0  0  0  0  0  0  0  0
   47.9770   35.4640   41.8480 C   0  0  0  0  0  0  0  0  0  0  0  0
   48.6760   35.3500   40.6710 C   0  0  0  0  0  0  0  0  0  0  0  0
   48.2070   34.4420   39.7630 C   0  0  0  0  0  0  0  0  0  0  0  0
   47.1020   33.6790   39.9970 C   0  0  0  0  0  0  0  0  0  0  0  0
   44.4660   35.9140   44.8350 C   0  0  0  0  0  0  0  0  0  0  0  0
   45.1710   35.8490   43.6280 C   0  0  0  0  0  0  0  0  0  0  0  0
   46.0990   34.8250   43.3790 C   0  0  0  0  0  0  0  0  0  0  0  0
   46.2540   33.9100   44.3980 N   0  0  0  0  0  0  0  0  0  0  0  0
   45.5660   33.9970   45.5450 C   0  0  0  0  0  0  0  0  0  0  0  0
   44.6830   34.9840   45.7630 N   0  0  0  0  0  0  0  0  0  0  0  0
   46.6110   32.7130   39.0180 C   0  0  0  0  0  0  0  0  0  0  0  0
   47.2160   31.5480   38.6310 C   0  0  0  0  0  0  0  0  0  0  0  0
   46.4200   30.9250   37.6800 C   0  0  0  0  0  0  0  0  0  0  0  0
   45.3550   31.7280   37.5180 N   0  0  0  0  0  0  0  0  0  0  0  0
   45.4680   32.7860   38.3090 N   0  0  0  0  0  0  0  0  0  0  0  0
   44.1810   31.5950   36.6480 C   0  0  0  0  0  0  0  0  0  0  0  0
   48.3332   36.1875   42.5961 H   0  0  0  0  0  0  0  0  0  0  0  0
   49.5692   35.9594   40.4690 H   0  0  0  0  0  0  0  0  0  0  0  0
   48.7409   34.3228   38.8087 H   0  0  0  0  0  0  0  0  0  0  0  0
   43.7422   36.7226   45.0148 H   0  0  0  0  0  0  0  0  0  0  0  0
   44.9947   36.6154   42.8589 H   0  0  0  0  0  0  0  0  0  0  0  0
   45.7291   33.2408   46.3270 H   0  0  0  0  0  0  0  0  0  0  0  0
   48.1756   31.1678   39.0113 H   0  0  0  0  0  0  0  0  0  0  0  0
   46.6193   29.9729   37.1663 H   0  0  0  0  0  0  0  0  0  0  0  0
   43.2766   31.4925   37.2657 H   0  0  0  0  0  0  0  0  0  0  0  0
   44.0920   32.4888   36.0130 H   0  0  0  0  0  0  0  0  0  0  0  0
   44.2942   30.7039   36.0130 H   0  0  0  0  0  0  0  0  0  0  0  0
  2  1  1  0
  2  3  2  0
  3 10  1  0
  4  3  1  0
  5  4  2  0
  6  7  2  0
  6  5  1  0
  7  2  1  0
  8 13  2  0
  9  8  1  0
 10  9  2  0
 10 11  1  0
 11 12  2  0
 12 13  1  0
 14  7  1  0
 15 14  1  0
 16 15  2  0
 17 16  1  0
 17 18  1  0
 18 14  2  0
 19 17  1  0
  4 20  1  0
  5 21  1  0
  6 22  1  0
  8 23  1  0
  9 24  1  0
 12 25  1  0
 15 26  1  0
 16 27  1  0
 19 28  1  0
 19 29  1  0
 19 30  1  0
M  ISO  8  20  14  21  14  22  14  23  14  24  14  25  14  26  14  27  14
M  ISO  3  28   8  29   8  30   8
M  END
>  <minimizedAffinity>  (1) 
-5.36399889

>  <minimizedRMSD>  (1) 
0.394099474

$$$$
