
     RDKit          3D

 40 43  0  0  1  0  0  0  0  0999 V2000
   46.0290   35.4880   42.6590 C   0  0  0  0  0  0  0  0  0  0  0  0
   46.7540   35.0080   41.5710 C   0  0  0  0  0  0  0  0  0  0  0  0
   47.2920   33.6980   41.6350 C   0  0  0  0  0  0  0  0  0  0  0  0
   47.0610   32.9760   42.7770 N   0  0  0  0  0  0  0  0  0  0  0  0
   46.3510   33.4740   43.8180 C   0  0  0  0  0  0  0  0  0  0  0  0
   45.8550   34.7060   43.7410 N   0  0  0  0  0  0  0  0  0  0  0  0
   46.2030   31.2600   44.8760 C   0  0  0  0  0  0  0  0  0  0  0  0
   46.1620   32.6310   44.9910 C   0  0  0  0  0  0  0  0  0  0  0  0
   45.9470   33.2930   46.2060 C   0  0  0  0  0  0  0  0  0  0  0  0
   45.7620   32.5420   47.3700 C   0  0  0  0  0  0  0  0  0  0  0  0
   45.5390   32.8070   48.6800 N   0  0  0  0  0  0  0  0  0  0  0  0
   45.4480   31.6130   49.3370 C   0  0  0  0  0  0  0  0  0  0  0  0
   45.6160   30.6300   48.4280 N   0  0  0  0  0  0  0  0  0  0  0  0
   45.8100   31.1600   47.2100 C   0  0  0  0  0  0  0  0  0  0  0  0
   46.0210   30.4930   46.0230 C   0  0  0  0  0  0  0  0  0  0  0  0
   48.0390   33.6880   39.2740 C   0  0  2  0  0  0  0  0  0  0  0  0
   48.0760   33.0150   40.6060 C   0  0  1  0  0  0  0  0  0  0  0  0
   49.4100   32.8640   40.9810 O   0  0  0  0  0  0  0  0  0  0  0  0
   50.0550   31.8890   40.2520 C   0  0  0  0  0  0  0  0  0  0  0  0
   49.4030   31.6040   38.9260 C   0  0  1  0  0  0  0  0  0  0  0  0
   48.8030   32.8250   38.2920 C   0  0  2  0  0  0  0  0  0  0  0  0
   48.7500   34.9040   39.3910 O   0  0  0  0  0  0  0  0  0  0  0  0
   50.3870   31.1400   38.0500 O   0  0  0  0  0  0  0  0  0  0  0  0
   49.7530   33.5440   37.5670 O   0  0  0  0  0  0  0  0  0  0  0  0
   45.6007   36.5009   42.6344 H   0  0  0  0  0  0  0  0  0  0  0  0
   46.9062   35.6335   40.6790 H   0  0  0  0  0  0  0  0  0  0  0  0
   46.3755   30.7818   43.9005 H   0  0  0  0  0  0  0  0  0  0  0  0
   45.9240   34.3921   46.2439 H   0  0  0  0  0  0  0  0  0  0  0  0
   45.4534   33.7416   49.1044 H   0  0  0  0  0  0  0  0  0  0  0  0
   45.2697   31.4771   50.4139 H   0  0  0  0  0  0  0  0  0  0  0  0
   46.0448   29.3940   45.9833 H   0  0  0  0  0  0  0  0  0  0  0  0
   47.0015   33.8493   38.9459 H   0  0  0  0  0  0  0  0  0  0  0  0
   47.5942   32.0310   40.5085 H   0  0  0  0  0  0  0  0  0  0  0  0
   51.0888   32.2173   40.0688 H   0  0  0  0  0  0  0  0  0  0  0  0
   50.0114   30.9611   40.8412 H   0  0  0  0  0  0  0  0  0  0  0  0
   48.6003   30.8745   39.1092 H   0  0  0  0  0  0  0  0  0  0  0  0
   48.0505   32.4699   37.5725 H   0  0  0  0  0  0  0  0  0  0  0  0
   48.8770   35.1212   40.3485 H   0  0  0  0  0  0  0  0  0  0  0  0
   51.1490   30.7807   38.5700 H   0  0  0  0  0  0  0  0  0  0  0  0
   50.3647   34.0069   38.1928 H   0  0  0  0  0  0  0  0  0  0  0  0
  1  6  2  0
  2  3  2  0
  2  1  1  0
  3  4  1  0
  4  5  2  0
  5  8  1  0
  6  5  1  0
  7  8  2  0
  7 15  1  0
  8  9  1  0
  9 10  2  0
 10 11  1  0
 11 12  1  0
 13 12  2  0
 14 10  1  0
 14 13  1  0
 15 14  2  0
 16 22  1  0
 16 17  1  0
 17 18  1  0
 17  3  1  0
 19 18  1  0
 20 23  1  0
 20 19  1  0
 21 24  1  0
 21 20  1  0
 21 16  1  0
  1 25  1  0
  2 26  1  0
  7 27  1  0
  9 28  1  0
 11 29  1  0
 12 30  1  0
 15 31  1  0
 16 32  1  6
 17 33  1  6
 19 34  1  0
 19 35  1  0
 20 36  1  1
 21 37  1  6
 22 38  1  0
 23 39  1  0
 24 40  1  0
M  ISO  8  25  14  26  14  27  14  28  14  29   9  30  14  31  14  32  13
M  ISO  8  33  13  34  13  35  13  36  13  37  13  38   3  39   3  40   3
M  END
>  <minimizedAffinity>  (1) 
-6.65686369

>  <minimizedRMSD>  (1) 
1.87169147

$$$$
