
     RDKit          3D

 33 36  0  0  0  0  0  0  0  0999 V2000
   44.9650   34.6020   45.5120 C   0  0  0  0  0  0  0  0  0  0  0  0
   45.4280   34.8680   44.2250 C   0  0  0  0  0  0  0  0  0  0  0  0
   46.5050   34.1240   43.7450 C   0  0  0  0  0  0  0  0  0  0  0  0
   47.0630   33.1690   44.5490 N   0  0  0  0  0  0  0  0  0  0  0  0
   46.5890   32.9360   45.7980 C   0  0  0  0  0  0  0  0  0  0  0  0
   45.5630   33.6480   46.2450 N   0  0  0  0  0  0  0  0  0  0  0  0
   47.3250   30.6160   46.1480 C   0  0  0  0  0  0  0  0  0  0  0  0
   47.2340   31.9080   46.5980 C   0  0  0  0  0  0  0  0  0  0  0  0
   47.7480   32.3220   47.8330 C   0  0  0  0  0  0  0  0  0  0  0  0
   48.3860   31.3970   48.6660 C   0  0  0  0  0  0  0  0  0  0  0  0
   48.9880   31.4010   49.8750 N   0  0  0  0  0  0  0  0  0  0  0  0
   49.4290   30.1340   50.1410 C   0  0  0  0  0  0  0  0  0  0  0  0
   49.0920   29.3550   49.0830 N   0  0  0  0  0  0  0  0  0  0  0  0
   48.4530   30.1000   48.1640 C   0  0  0  0  0  0  0  0  0  0  0  0
   47.9530   29.6700   46.9490 C   0  0  0  0  0  0  0  0  0  0  0  0
   47.0530   34.3330   42.4190 C   0  0  0  0  0  0  0  0  0  0  0  0
   46.5510   33.7600   41.2710 C   0  0  0  0  0  0  0  0  0  0  0  0
   47.0640   33.9520   40.0050 C   0  0  0  0  0  0  0  0  0  0  0  0
   48.1770   34.7870   39.8600 C   0  0  0  0  0  0  0  0  0  0  0  0
   48.6970   35.3710   40.9940 C   0  0  0  0  0  0  0  0  0  0  0  0
   48.1490   35.1480   42.2370 C   0  0  0  0  0  0  0  0  0  0  0  0
   44.1170   35.1684   45.9244 H   0  0  0  0  0  0  0  0  0  0  0  0
   44.9565   35.6442   43.6043 H   0  0  0  0  0  0  0  0  0  0  0  0
   46.9082   30.3333   45.1701 H   0  0  0  0  0  0  0  0  0  0  0  0
   47.6503   33.3716   48.1472 H   0  0  0  0  0  0  0  0  0  0  0  0
   49.0965   32.2189   50.4916 H   0  0  0  0  0  0  0  0  0  0  0  0
   49.9598   29.8066   51.0471 H   0  0  0  0  0  0  0  0  0  0  0  0
   48.0484   28.6218   46.6294 H   0  0  0  0  0  0  0  0  0  0  0  0
   45.6763   33.1006   41.3714 H   0  0  0  0  0  0  0  0  0  0  0  0
   46.6095   33.4611   39.1318 H   0  0  0  0  0  0  0  0  0  0  0  0
   48.6229   34.9714   38.8715 H   0  0  0  0  0  0  0  0  0  0  0  0
   49.5717   36.0319   40.9041 H   0  0  0  0  0  0  0  0  0  0  0  0
   48.6006   35.6362   43.1132 H   0  0  0  0  0  0  0  0  0  0  0  0
  1  6  2  0
  2  1  1  0
  3  2  2  0
  3  4  1  0
  4  5  2  0
  5  6  1  0
  5  8  1  0
  7  8  2  0
  7 15  1  0
  8  9  1  0
  9 10  2  0
 10 11  1  0
 11 12  1  0
 13 12  2  0
 14 10  1  0
 14 13  1  0
 15 14  2  0
 16  3  1  0
 17 16  2  0
 18 17  1  0
 19 18  2  0
 19 20  1  0
 20 21  2  0
 21 16  1  0
  1 22  1  0
  2 23  1  0
  7 24  1  0
  9 25  1  0
 11 26  1  0
 12 27  1  0
 15 28  1  0
 17 29  1  0
 18 30  1  0
 19 31  1  0
 20 32  1  0
 21 33  1  0
M  ISO  8  22  14  23  14  24  14  25  14  26   9  27  14  28  14  29  14
M  ISO  4  30  14  31  14  32  14  33  14
M  END
>  <minimizedAffinity>  (1) 
-6.35847712

>  <minimizedRMSD>  (1) 
3.13350964

$$$$
