
     RDKit          3D

 25 27  0  0  0  0  0  0  0  0999 V2000
   47.2250   31.3570   45.1050 C   0  0  0  0  0  0  0  0  0  0  0  0
   46.8690   32.6850   45.1190 C   0  0  0  0  0  0  0  0  0  0  0  0
   46.2570   33.3110   46.2080 C   0  0  0  0  0  0  0  0  0  0  0  0
   45.9850   32.5580   47.3550 C   0  0  0  0  0  0  0  0  0  0  0  0
   45.4230   32.8030   48.5650 N   0  0  0  0  0  0  0  0  0  0  0  0
   45.4350   31.6360   49.2850 C   0  0  0  0  0  0  0  0  0  0  0  0
   46.0090   30.6890   48.4950 N   0  0  0  0  0  0  0  0  0  0  0  0
   46.3510   31.2270   47.3170 C   0  0  0  0  0  0  0  0  0  0  0  0
   46.9540   30.5990   46.2500 C   0  0  0  0  0  0  0  0  0  0  0  0
   46.5010   35.2160   42.4590 C   0  0  0  0  0  0  0  0  0  0  0  0
   47.6840   35.0630   41.7380 C   0  0  0  0  0  0  0  0  0  0  0  0
   48.6010   34.0950   42.1650 C   0  0  0  0  0  0  0  0  0  0  0  0
   48.2920   33.3450   43.2720 N   0  0  0  0  0  0  0  0  0  0  0  0
   47.1300   33.5270   43.9440 C   0  0  0  0  0  0  0  0  0  0  0  0
   46.2400   34.4460   43.5510 N   0  0  0  0  0  0  0  0  0  0  0  0
   49.8430   33.8380   41.5200 N   0  0  0  0  0  0  0  0  0  0  0  0
   47.7061   30.9060   44.2246 H   0  0  0  0  0  0  0  0  0  0  0  0
   45.9935   34.3781   46.1641 H   0  0  0  0  0  0  0  0  0  0  0  0
   45.0518   33.7082   48.8870 H   0  0  0  0  0  0  0  0  0  0  0  0
   45.0532   31.4929   50.3067 H   0  0  0  0  0  0  0  0  0  0  0  0
   47.2154   29.5315   46.2963 H   0  0  0  0  0  0  0  0  0  0  0  0
   45.7668   35.9707   42.1407 H   0  0  0  0  0  0  0  0  0  0  0  0
   47.8918   35.6868   40.8561 H   0  0  0  0  0  0  0  0  0  0  0  0
   50.4728   33.1100   41.8866 H   0  0  0  0  0  0  0  0  0  0  0  0
   50.1123   34.3799   40.6865 H   0  0  0  0  0  0  0  0  0  0  0  0
  1  2  2  0
  1  9  1  0
  2  3  1  0
  3  4  2  0
  4  5  1  0
  5  6  1  0
  7  6  2  0
  8  4  1  0
  8  7  1  0
  9  8  2  0
 10 15  2  0
 11 12  2  0
 11 10  1  0
 12 13  1  0
 13 14  2  0
 14  2  1  0
 15 14  1  0
 16 12  1  0
  1 17  1  0
  3 18  1  0
  5 19  1  0
  6 20  1  0
  9 21  1  0
 10 22  1  0
 11 23  1  0
 16 24  1  0
 16 25  1  0
M  ISO  7  17  14  18  14  19   9  20  14  21  14  22  14  23  14
M  END
>  <minimizedAffinity>  (1) 
-5.41262007

>  <minimizedRMSD>  (1) 
0.0362711176

$$$$
