
     RDKit          3D

 29 31  0  0  0  0  0  0  0  0999 V2000
   46.3410   33.4870   41.8520 C   0  0  0  0  0  0  0  0  0  0  0  0
   47.6980   33.6600   41.5500 C   0  0  0  0  0  0  0  0  0  0  0  0
   48.6060   33.2380   42.4990 C   0  0  0  0  0  0  0  0  0  0  0  0
   48.1140   32.6870   43.6550 N   0  0  0  0  0  0  0  0  0  0  0  0
   46.8070   32.5360   43.9150 C   0  0  0  0  0  0  0  0  0  0  0  0
   45.9120   32.9350   43.0140 N   0  0  0  0  0  0  0  0  0  0  0  0
   46.0920   30.5760   45.2130 C   0  0  0  0  0  0  0  0  0  0  0  0
   46.3840   31.9340   45.1660 C   0  0  0  0  0  0  0  0  0  0  0  0
   46.2920   32.7660   46.2730 C   0  0  0  0  0  0  0  0  0  0  0  0
   45.8880   32.2250   47.5040 C   0  0  0  0  0  0  0  0  0  0  0  0
   45.6950   32.7250   48.7530 N   0  0  0  0  0  0  0  0  0  0  0  0
   45.2880   31.6560   49.5380 C   0  0  0  0  0  0  0  0  0  0  0  0
   45.2430   30.5440   48.7600 N   0  0  0  0  0  0  0  0  0  0  0  0
   45.6080   30.8700   47.5060 C   0  0  0  0  0  0  0  0  0  0  0  0
   45.6900   30.0260   46.4280 C   0  0  0  0  0  0  0  0  0  0  0  0
   50.0410   33.3930   42.2210 C   0  0  0  0  0  0  0  0  0  0  0  0
   50.4460   34.6960   42.1570 F   0  0  0  0  0  0  0  0  0  0  0  0
   50.7840   32.8200   43.2320 F   0  0  0  0  0  0  0  0  0  0  0  0
   50.3370   32.7470   41.0290 F   0  0  0  0  0  0  0  0  0  0  0  0
   47.9280   34.3120   40.2490 C   0  0  0  0  0  0  0  0  0  0  0  0
   46.7720   34.4060   39.4630 F   0  0  0  0  0  0  0  0  0  0  0  0
   48.7820   33.5870   39.4390 F   0  0  0  0  0  0  0  0  0  0  0  0
   48.5680   35.5380   40.3770 F   0  0  0  0  0  0  0  0  0  0  0  0
   45.5918   33.8127   41.1154 H   0  0  0  0  0  0  0  0  0  0  0  0
   46.1763   29.9504   44.3122 H   0  0  0  0  0  0  0  0  0  0  0  0
   46.5326   33.8359   46.1870 H   0  0  0  0  0  0  0  0  0  0  0  0
   45.8248   33.7009   49.0557 H   0  0  0  0  0  0  0  0  0  0  0  0
   45.0432   31.7015   50.6094 H   0  0  0  0  0  0  0  0  0  0  0  0
   45.4478   28.9569   46.5193 H   0  0  0  0  0  0  0  0  0  0  0  0
  1  6  2  0
  2  1  1  0
  2  3  2  0
  3  4  1  0
  4  5  2  0
  5  8  1  0
  6  5  1  0
  7 15  2  0
  8  7  1  0
  8  9  2  0
  9 10  1  0
 10 14  2  0
 10 11  1  0
 11 12  1  0
 13 12  2  0
 14 13  1  0
 15 14  1  0
 16  3  1  0
 16 18  1  0
 17 16  1  0
 19 16  1  0
 20 23  1  0
 20  2  1  0
 21 20  1  0
 22 20  1  0
  1 24  1  0
  7 25  1  0
  9 26  1  0
 11 27  1  0
 12 28  1  0
 15 29  1  0
M  ISO  6  24  14  25  14  26  14  27   9  28  14  29  14
M  END
>  <minimizedAffinity>  (1) 
-5.68856573

>  <minimizedRMSD>  (1) 
1.83976626

$$$$
