
     RDKit          3D

 29 31  0  0  1  0  0  0  0  0999 V2000
   46.2980   32.1460   44.5120 C   0  0  1  0  0  0  0  0  0  0  0  0
   46.5690   31.4590   43.3050 C   0  0  0  0  0  0  0  0  0  0  0  0
   47.7200   32.1510   44.0560 C   0  0  1  0  0  0  0  0  0  0  0  0
   45.0790   34.0130   43.2060 C   0  0  0  0  0  0  0  0  0  0  0  0
   45.5500   33.4770   44.4310 C   0  0  0  0  0  0  0  0  0  0  0  0
   45.3320   34.2060   45.5750 C   0  0  0  0  0  0  0  0  0  0  0  0
   44.6830   35.3920   45.4840 N   0  0  0  0  0  0  0  0  0  0  0  0
   44.2370   35.8970   44.3140 C   0  0  0  0  0  0  0  0  0  0  0  0
   44.4450   35.1770   43.1320 N   0  0  0  0  0  0  0  0  0  0  0  0
   48.1750   33.3640   43.4420 N   0  0  0  0  0  0  0  0  0  0  0  0
   49.2990   33.4260   42.6340 C   0  0  0  0  0  0  0  0  0  0  0  0
   50.4470   32.9320   42.7840 O   0  0  0  0  0  0  0  0  0  0  0  0
   49.2400   34.1890   41.3170 C   0  0  2  0  0  0  0  0  0  0  0  0
   48.8900   35.7130   41.4230 C   0  0  0  0  0  0  0  0  0  0  0  0
   47.9850   34.6820   40.7690 C   0  0  1  0  0  0  0  0  0  0  0  0
   47.8560   34.7470   39.3560 O   0  0  0  0  0  0  0  0  0  0  0  0
   45.7947   31.8474   45.4434 H   0  0  0  0  0  0  0  0  0  0  0  0
   46.2131   31.8695   42.3485 H   0  0  0  0  0  0  0  0  0  0  0  0
   46.3873   30.4384   42.9372 H   0  0  0  0  0  0  0  0  0  0  0  0
   48.6938   31.8742   44.4862 H   0  0  0  0  0  0  0  0  0  0  0  0
   45.2454   33.4421   42.2806 H   0  0  0  0  0  0  0  0  0  0  0  0
   45.6790   33.8326   46.5498 H   0  0  0  0  0  0  0  0  0  0  0  0
   43.7152   36.8650   44.2900 H   0  0  0  0  0  0  0  0  0  0  0  0
   47.6418   34.2293   43.6092 H   0  0  0  0  0  0  0  0  0  0  0  0
   50.0421   33.5682   40.8912 H   0  0  0  0  0  0  0  0  0  0  0  0
   48.6215   36.1600   42.3915 H   0  0  0  0  0  0  0  0  0  0  0  0
   49.3606   36.6633   41.1309 H   0  0  0  0  0  0  0  0  0  0  0  0
   46.9354   34.3861   40.9133 H   0  0  0  0  0  0  0  0  0  0  0  0
   46.9968   35.1799   39.1226 H   0  0  0  0  0  0  0  0  0  0  0  0
  2  3  1  0
  2  1  1  0
  3  1  1  0
  4  5  2  0
  5  1  1  0
  5  6  1  0
  7  6  2  0
  8  7  1  0
  9  4  1  0
  9  8  2  0
 10  3  1  0
 11 12  2  0
 11 10  1  0
 13 14  1  0
 13 11  1  0
 15 13  1  0
 15 14  1  0
 16 15  1  0
  1 17  1  1
  2 18  1  0
  2 19  1  0
  3 20  1  1
  4 21  1  0
  6 22  1  0
  8 23  1  0
 10 24  1  0
 13 25  1  6
 14 26  1  0
 14 27  1  0
 15 28  1  1
 16 29  1  0
M  ISO  8  17  13  18  13  19  13  20  13  21  14  22  14  23  14  25  13
M  ISO  4  26  13  27  13  28  13  29   3
M  END
>  <minimizedAffinity>  (1) 
-4.46016598

>  <minimizedRMSD>  (1) 
0.300820202

$$$$
