
     RDKit          3D

 31 33  0  0  1  0  0  0  0  0999 V2000
   46.3240   32.1620   44.5130 C   0  0  1  0  0  0  0  0  0  0  0  0
   46.5950   31.4690   43.3050 C   0  0  0  0  0  0  0  0  0  0  0  0
   47.7410   32.1740   44.0550 C   0  0  1  0  0  0  0  0  0  0  0  0
   45.0990   34.0230   43.1810 C   0  0  0  0  0  0  0  0  0  0  0  0
   45.5630   33.4900   44.4160 C   0  0  0  0  0  0  0  0  0  0  0  0
   45.3310   34.2140   45.5580 C   0  0  0  0  0  0  0  0  0  0  0  0
   44.6780   35.3960   45.4700 N   0  0  0  0  0  0  0  0  0  0  0  0
   44.2390   35.8980   44.2940 C   0  0  0  0  0  0  0  0  0  0  0  0
   44.4600   35.1850   43.1130 N   0  0  0  0  0  0  0  0  0  0  0  0
   48.1920   33.3770   43.4360 N   0  0  0  0  0  0  0  0  0  0  0  0
   49.3570   33.4720   42.6980 C   0  0  0  0  0  0  0  0  0  0  0  0
   50.5120   33.0180   42.9260 O   0  0  0  0  0  0  0  0  0  0  0  0
   49.3460   34.2200   41.3740 C   0  0  2  0  0  0  0  0  0  0  0  0
   48.8820   35.7090   41.4170 C   0  0  0  0  0  0  0  0  0  0  0  0
   48.1080   34.6060   40.7170 C   0  0  1  0  0  0  0  0  0  0  0  0
   48.1360   34.6170   39.1770 C   0  0  0  0  0  0  0  0  0  0  0  0
   45.8287   31.8666   45.4497 H   0  0  0  0  0  0  0  0  0  0  0  0
   46.2349   31.8730   42.3473 H   0  0  0  0  0  0  0  0  0  0  0  0
   46.4193   30.4461   42.9407 H   0  0  0  0  0  0  0  0  0  0  0  0
   48.7160   31.9069   44.4886 H   0  0  0  0  0  0  0  0  0  0  0  0
   45.2749   33.4556   42.2552 H   0  0  0  0  0  0  0  0  0  0  0  0
   45.6719   33.8380   46.5339 H   0  0  0  0  0  0  0  0  0  0  0  0
   43.7107   36.8625   44.2671 H   0  0  0  0  0  0  0  0  0  0  0  0
   47.6164   34.2241   43.5451 H   0  0  0  0  0  0  0  0  0  0  0  0
   50.2269   33.6583   41.0297 H   0  0  0  0  0  0  0  0  0  0  0  0
   48.5053   36.1513   42.3511 H   0  0  0  0  0  0  0  0  0  0  0  0
   49.3059   36.6859   41.1415 H   0  0  0  0  0  0  0  0  0  0  0  0
   47.0682   34.2532   40.7825 H   0  0  0  0  0  0  0  0  0  0  0  0
   49.1078   34.9988   38.8307 H   0  0  0  0  0  0  0  0  0  0  0  0
   47.9885   33.5941   38.8003 H   0  0  0  0  0  0  0  0  0  0  0  0
   47.3317   35.2660   38.8003 H   0  0  0  0  0  0  0  0  0  0  0  0
  2  3  1  0
  2  1  1  0
  3  1  1  0
  4  5  2  0
  5  1  1  0
  5  6  1  0
  7  6  2  0
  8  7  1  0
  9  4  1  0
  9  8  2  0
 10  3  1  0
 11 12  2  0
 11 10  1  0
 13 14  1  0
 13 11  1  0
 15 13  1  0
 15 14  1  0
 16 15  1  0
  1 17  1  1
  2 18  1  0
  2 19  1  0
  3 20  1  1
  4 21  1  0
  6 22  1  0
  8 23  1  0
 10 24  1  0
 13 25  1  6
 14 26  1  0
 14 27  1  0
 15 28  1  6
 16 29  1  0
 16 30  1  0
 16 31  1  0
M  ISO  8  17  13  18  13  19  13  20  13  21  14  22  14  23  14  25  13
M  ISO  6  26  13  27  13  28  13  29   8  30   8  31   8
M  END
>  <minimizedAffinity>  (1) 
-4.45146608

>  <minimizedRMSD>  (1) 
0.36615634

$$$$
