
     RDKit          3D

 35 38  0  0  0  0  0  0  0  0999 V2000
   45.9630   33.1510   41.7170 C   0  0  0  0  0  0  0  0  0  0  0  0
   47.0980   33.8620   41.3490 C   0  0  0  0  0  0  0  0  0  0  0  0
   48.1030   33.9660   42.3100 C   0  0  0  0  0  0  0  0  0  0  0  0
   47.8970   33.3690   43.5220 N   0  0  0  0  0  0  0  0  0  0  0  0
   46.7880   32.6920   43.8410 C   0  0  0  0  0  0  0  0  0  0  0  0
   45.8080   32.5800   42.9320 N   0  0  0  0  0  0  0  0  0  0  0  0
   47.1090   30.8270   45.3950 C   0  0  0  0  0  0  0  0  0  0  0  0
   46.6670   32.1000   45.1550 C   0  0  0  0  0  0  0  0  0  0  0  0
   46.0740   32.9020   46.1550 C   0  0  0  0  0  0  0  0  0  0  0  0
   45.9240   32.3970   47.4450 C   0  0  0  0  0  0  0  0  0  0  0  0
   45.4250   32.8430   48.6220 N   0  0  0  0  0  0  0  0  0  0  0  0
   45.5720   31.8420   49.5450 C   0  0  0  0  0  0  0  0  0  0  0  0
   46.1580   30.8000   48.9230 N   0  0  0  0  0  0  0  0  0  0  0  0
   46.3850   31.1090   47.6370 C   0  0  0  0  0  0  0  0  0  0  0  0
   46.9700   30.2990   46.6770 C   0  0  0  0  0  0  0  0  0  0  0  0
   49.3460   34.7070   41.9960 C   0  0  0  0  0  0  0  0  0  0  0  0
   49.0510   35.8260   41.1950 F   0  0  0  0  0  0  0  0  0  0  0  0
   49.9280   35.1840   43.1380 F   0  0  0  0  0  0  0  0  0  0  0  0
   50.1910   33.8660   41.3280 F   0  0  0  0  0  0  0  0  0  0  0  0
   47.2040   34.4190   40.1230 O   0  0  0  0  0  0  0  0  0  0  0  0
   47.3810   33.6930   38.9880 C   0  0  0  0  0  0  0  0  0  0  0  0
   48.3080   34.3940   38.2010 C   0  0  0  0  0  0  0  0  0  0  0  0
   48.7360   33.9410   36.9500 C   0  0  0  0  0  0  0  0  0  0  0  0
   48.2500   32.7880   36.4590 N   0  0  0  0  0  0  0  0  0  0  0  0
   47.3630   32.1220   37.2190 C   0  0  0  0  0  0  0  0  0  0  0  0
   46.9610   32.5650   38.4140 N   0  0  0  0  0  0  0  0  0  0  0  0
   45.1501   33.0476   40.9832 H   0  0  0  0  0  0  0  0  0  0  0  0
   47.5656   30.2317   44.5906 H   0  0  0  0  0  0  0  0  0  0  0  0
   45.7323   33.9201   45.9167 H   0  0  0  0  0  0  0  0  0  0  0  0
   45.0091   33.7697   48.7927 H   0  0  0  0  0  0  0  0  0  0  0  0
   45.2674   31.8813   50.6012 H   0  0  0  0  0  0  0  0  0  0  0  0
   47.3107   29.2810   46.9171 H   0  0  0  0  0  0  0  0  0  0  0  0
   48.7152   35.3408   38.5854 H   0  0  0  0  0  0  0  0  0  0  0  0
   49.4664   34.5247   36.3705 H   0  0  0  0  0  0  0  0  0  0  0  0
   46.9516   31.1741   36.8418 H   0  0  0  0  0  0  0  0  0  0  0  0
  1  6  2  0
  2  1  1  0
  2  3  2  0
  3  4  1  0
  4  5  2  0
  5  8  1  0
  6  5  1  0
  7 15  2  0
  8  7  1  0
  8  9  2  0
  9 10  1  0
 10 14  2  0
 10 11  1  0
 11 12  1  0
 13 12  2  0
 14 13  1  0
 15 14  1  0
 16  3  1  0
 16 18  1  0
 17 16  1  0
 19 16  1  0
 20  2  1  0
 21 20  1  0
 22 21  2  0
 23 22  1  0
 24 23  2  0
 24 25  1  0
 25 26  2  0
 26 21  1  0
  1 27  1  0
  7 28  1  0
  9 29  1  0
 11 30  1  0
 12 31  1  0
 15 32  1  0
 22 33  1  0
 23 34  1  0
 25 35  1  0
M  ISO  8  27  14  28  14  29  14  30   9  31  14  32  14  33  14  34  14
M  ISO  1  35  14
M  END
>  <minimizedAffinity>  (1) 
-6.25082159

>  <minimizedRMSD>  (1) 
1.48959363

$$$$
