
     RDKit          3D

 35 38  0  0  0  0  0  0  0  0999 V2000
   45.9630   33.1710   41.6550 C   0  0  0  0  0  0  0  0  0  0  0  0
   47.1200   33.8780   41.3310 C   0  0  0  0  0  0  0  0  0  0  0  0
   48.1000   33.9580   42.3040 C   0  0  0  0  0  0  0  0  0  0  0  0
   47.8660   33.3450   43.4990 N   0  0  0  0  0  0  0  0  0  0  0  0
   46.7600   32.6760   43.7950 C   0  0  0  0  0  0  0  0  0  0  0  0
   45.7830   32.5790   42.8670 N   0  0  0  0  0  0  0  0  0  0  0  0
   46.9180   30.7510   45.3050 C   0  0  0  0  0  0  0  0  0  0  0  0
   46.6040   32.0580   45.0960 C   0  0  0  0  0  0  0  0  0  0  0  0
   46.1060   32.8990   46.1270 C   0  0  0  0  0  0  0  0  0  0  0  0
   45.9260   32.3930   47.4030 C   0  0  0  0  0  0  0  0  0  0  0  0
   45.4900   32.8690   48.5970 N   0  0  0  0  0  0  0  0  0  0  0  0
   45.5480   31.8510   49.5000 C   0  0  0  0  0  0  0  0  0  0  0  0
   46.0130   30.7710   48.8600 N   0  0  0  0  0  0  0  0  0  0  0  0
   46.2560   31.0680   47.5710 C   0  0  0  0  0  0  0  0  0  0  0  0
   46.7390   30.2300   46.5870 C   0  0  0  0  0  0  0  0  0  0  0  0
   49.3510   34.6960   42.0140 C   0  0  0  0  0  0  0  0  0  0  0  0
   49.0860   35.8190   41.2150 F   0  0  0  0  0  0  0  0  0  0  0  0
   49.9090   35.1660   43.1780 F   0  0  0  0  0  0  0  0  0  0  0  0
   50.2140   33.8480   41.3590 F   0  0  0  0  0  0  0  0  0  0  0  0
   47.2270   34.4390   40.1070 O   0  0  0  0  0  0  0  0  0  0  0  0
   47.3620   33.6910   38.9540 C   0  0  0  0  0  0  0  0  0  0  0  0
   48.3520   34.3620   38.2440 C   0  0  0  0  0  0  0  0  0  0  0  0
   48.5350   33.3680   36.7080 S   0  0  0  0  0  0  0  0  0  0  0  0
   47.1990   32.1760   37.3080 C   0  0  0  0  0  0  0  0  0  0  0  0
   46.9680   32.6580   38.2760 N   0  0  0  0  0  0  0  0  0  0  0  0
   46.7060   31.0100   36.6170 N   0  0  0  0  0  0  0  0  0  0  0  0
   45.1652   33.0885   40.9022 H   0  0  0  0  0  0  0  0  0  0  0  0
   47.3018   30.1232   44.4873 H   0  0  0  0  0  0  0  0  0  0  0  0
   45.8639   33.9502   45.9118 H   0  0  0  0  0  0  0  0  0  0  0  0
   45.1716   33.8300   48.7866 H   0  0  0  0  0  0  0  0  0  0  0  0
   45.2645   31.9062   50.5614 H   0  0  0  0  0  0  0  0  0  0  0  0
   46.9767   29.1788   46.8074 H   0  0  0  0  0  0  0  0  0  0  0  0
   48.8970   35.2727   38.5332 H   0  0  0  0  0  0  0  0  0  0  0  0
   45.9698   30.4306   37.0450 H   0  0  0  0  0  0  0  0  0  0  0  0
   47.0901   30.7567   35.6955 H   0  0  0  0  0  0  0  0  0  0  0  0
  1  6  2  0
  2  1  1  0
  2  3  2  0
  3  4  1  0
  4  5  2  0
  5  8  1  0
  6  5  1  0
  7 15  2  0
  8  7  1  0
  8  9  2  0
  9 10  1  0
 10 14  2  0
 10 11  1  0
 11 12  1  0
 13 12  2  0
 14 13  1  0
 15 14  1  0
 16  3  1  0
 16 18  1  0
 17 16  1  0
 19 16  1  0
 20  2  1  0
 21 20  1  0
 22 21  2  0
 23 24  1  0
 23 22  1  0
 24 25  2  0
 25 21  1  0
 26 24  1  0
  1 27  1  0
  7 28  1  0
  9 29  1  0
 11 30  1  0
 12 31  1  0
 15 32  1  0
 22 33  1  0
 26 34  1  0
 26 35  1  0
M  ISO  7  27  14  28  14  29  14  30   9  31  14  32  14  33  14
M  END
>  <minimizedAffinity>  (1) 
-6.0747385

>  <minimizedRMSD>  (1) 
0.0139053017

$$$$
