
     RDKit          3D

 35 38  0  0  0  0  0  0  0  0999 V2000
   45.9650   33.1730   41.6480 C   0  0  0  0  0  0  0  0  0  0  0  0
   47.1150   33.8760   41.3160 C   0  0  0  0  0  0  0  0  0  0  0  0
   48.1030   33.9680   42.2880 C   0  0  0  0  0  0  0  0  0  0  0  0
   47.8610   33.3570   43.4900 N   0  0  0  0  0  0  0  0  0  0  0  0
   46.7420   32.6840   43.7880 C   0  0  0  0  0  0  0  0  0  0  0  0
   45.7790   32.5900   42.8560 N   0  0  0  0  0  0  0  0  0  0  0  0
   46.9170   30.7700   45.2990 C   0  0  0  0  0  0  0  0  0  0  0  0
   46.5910   32.0770   45.0930 C   0  0  0  0  0  0  0  0  0  0  0  0
   46.0910   32.9160   46.1190 C   0  0  0  0  0  0  0  0  0  0  0  0
   45.9240   32.3880   47.3990 C   0  0  0  0  0  0  0  0  0  0  0  0
   45.4870   32.8620   48.5930 N   0  0  0  0  0  0  0  0  0  0  0  0
   45.5530   31.8490   49.4980 C   0  0  0  0  0  0  0  0  0  0  0  0
   46.0260   30.7790   48.8460 N   0  0  0  0  0  0  0  0  0  0  0  0
   46.2650   31.0680   47.5570 C   0  0  0  0  0  0  0  0  0  0  0  0
   46.7520   30.2320   46.5770 C   0  0  0  0  0  0  0  0  0  0  0  0
   49.3560   34.6990   42.0070 C   0  0  0  0  0  0  0  0  0  0  0  0
   49.0910   35.8230   41.2060 F   0  0  0  0  0  0  0  0  0  0  0  0
   49.9130   35.1730   43.1700 F   0  0  0  0  0  0  0  0  0  0  0  0
   50.2060   33.8390   41.3530 F   0  0  0  0  0  0  0  0  0  0  0  0
   47.2270   34.4290   40.0980 O   0  0  0  0  0  0  0  0  0  0  0  0
   47.3730   33.6960   38.9430 C   0  0  0  0  0  0  0  0  0  0  0  0
   48.3770   34.3840   38.2310 C   0  0  0  0  0  0  0  0  0  0  0  0
   48.5250   33.3560   36.7000 S   0  0  0  0  0  0  0  0  0  0  0  0
   47.2010   32.1840   37.3020 C   0  0  0  0  0  0  0  0  0  0  0  0
   46.9690   32.6620   38.2710 N   0  0  0  0  0  0  0  0  0  0  0  0
   46.8340   31.0450   36.4420 C   0  0  0  0  0  0  0  0  0  0  0  0
   47.1720   31.0630   35.2230 O   0  0  0  0  0  0  0  0  0  0  0  0
   45.1679   33.0855   40.8950 H   0  0  0  0  0  0  0  0  0  0  0  0
   47.3024   30.1513   44.4752 H   0  0  0  0  0  0  0  0  0  0  0  0
   45.8388   33.9660   45.9097 H   0  0  0  0  0  0  0  0  0  0  0  0
   45.1621   33.8212   48.7810 H   0  0  0  0  0  0  0  0  0  0  0  0
   45.2721   31.8988   50.5604 H   0  0  0  0  0  0  0  0  0  0  0  0
   47.0011   29.1824   46.7923 H   0  0  0  0  0  0  0  0  0  0  0  0
   48.9279   35.2936   38.5122 H   0  0  0  0  0  0  0  0  0  0  0  0
   46.2746   30.1920   36.8537 H   0  0  0  0  0  0  0  0  0  0  0  0
  1  6  2  0
  2  1  1  0
  2  3  2  0
  3  4  1  0
  4  5  2  0
  5  8  1  0
  6  5  1  0
  7 15  2  0
  8  7  1  0
  8  9  2  0
  9 10  1  0
 10 14  2  0
 10 11  1  0
 11 12  1  0
 13 12  2  0
 14 13  1  0
 15 14  1  0
 16  3  1  0
 16 18  1  0
 17 16  1  0
 19 16  1  0
 20  2  1  0
 21 20  1  0
 22 21  2  0
 23 24  1  0
 23 22  1  0
 24 25  2  0
 25 21  1  0
 26 24  1  0
 27 26  2  0
  1 28  1  0
  7 29  1  0
  9 30  1  0
 11 31  1  0
 12 32  1  0
 15 33  1  0
 22 34  1  0
 26 35  1  0
M  ISO  8  28  14  29  14  30  14  31   9  32  14  33  14  34  14  35   6
M  END
>  <minimizedAffinity>  (1) 
-5.93014669

>  <minimizedRMSD>  (1) 
0.424922734

$$$$
