
     RDKit          3D

 26 28  0  0  0  0  0  0  0  0999 V2000
   46.8460   30.9590   46.5390 C   0  0  0  0  0  0  0  0  0  0  0  0
   46.6460   32.1280   47.2770 C   0  0  0  0  0  0  0  0  0  0  0  0
   47.4070   32.2050   48.4190 C   0  0  0  0  0  0  0  0  0  0  0  0
   48.2900   31.2340   48.8170 C   0  0  0  0  0  0  0  0  0  0  0  0
   49.1000   31.1710   49.9050 N   0  0  0  0  0  0  0  0  0  0  0  0
   49.7890   30.0040   49.8600 C   0  0  0  0  0  0  0  0  0  0  0  0
   49.3980   29.3160   48.7070 C   0  0  0  0  0  0  0  0  0  0  0  0
   48.4620   30.1060   48.0760 C   0  0  0  0  0  0  0  0  0  0  0  0
   47.7390   29.9580   46.9240 C   0  0  0  0  0  0  0  0  0  0  0  0
   45.6960   33.1220   46.8010 C   0  0  0  0  0  0  0  0  0  0  0  0
   44.7580   33.3290   47.6090 O   0  0  0  0  0  0  0  0  0  0  0  0
   44.9210   35.4800   44.1390 C   0  0  0  0  0  0  0  0  0  0  0  0
   45.8730   35.2160   43.1500 C   0  0  0  0  0  0  0  0  0  0  0  0
   46.7940   34.2010   43.4210 C   0  0  0  0  0  0  0  0  0  0  0  0
   46.6990   33.5540   44.6060 N   0  0  0  0  0  0  0  0  0  0  0  0
   45.7810   33.8250   45.5360 C   0  0  0  0  0  0  0  0  0  0  0  0
   44.8980   34.7950   45.2790 N   0  0  0  0  0  0  0  0  0  0  0  0
   46.2725   30.8209   45.6105 H   0  0  0  0  0  0  0  0  0  0  0  0
   47.3015   33.0988   49.0515 H   0  0  0  0  0  0  0  0  0  0  0  0
   49.1779   31.8883   50.6401 H   0  0  0  0  0  0  0  0  0  0  0  0
   50.5259   29.6591   50.6003 H   0  0  0  0  0  0  0  0  0  0  0  0
   49.7658   28.3357   48.3697 H   0  0  0  0  0  0  0  0  0  0  0  0
   47.8607   29.0564   46.3056 H   0  0  0  0  0  0  0  0  0  0  0  0
   44.1752   36.2709   43.9710 H   0  0  0  0  0  0  0  0  0  0  0  0
   45.8958   35.7793   42.2055 H   0  0  0  0  0  0  0  0  0  0  0  0
   47.5739   33.9353   42.6922 H   0  0  0  0  0  0  0  0  0  0  0  0
  1  9  2  0
  1  2  1  0
  2  3  2  0
  3  4  1  0
  4  5  1  0
  6  5  1  0
  7  6  2  0
  8  7  1  0
  8  4  2  0
  9  8  1  0
 10  2  1  0
 10 11  2  0
 12 17  2  0
 13 14  2  0
 13 12  1  0
 14 15  1  0
 15 16  2  0
 16 10  1  0
 17 16  1  0
  1 18  1  0
  3 19  1  0
  5 20  1  0
  6 21  1  0
  7 22  1  0
  9 23  1  0
 12 24  1  0
 13 25  1  0
 14 26  1  0
M  ISO  8  18  14  19  14  20   9  21  14  22  14  23  14  24  14  25  14
M  ISO  1  26  14
M  END
>  <minimizedAffinity>  (1) 
-5.32548857

>  <minimizedRMSD>  (1) 
1.34010553

$$$$
