
     RDKit          3D

 22 23  0  0  0  0  0  0  0  0999 V2000
   45.7840   33.0730   46.7280 C   0  0  0  0  0  0  0  0  0  0  0  0
   44.8640   33.2230   47.6000 O   0  0  0  0  0  0  0  0  0  0  0  0
   44.8590   35.5400   44.2500 C   0  0  0  0  0  0  0  0  0  0  0  0
   45.7380   35.3480   43.1850 C   0  0  0  0  0  0  0  0  0  0  0  0
   46.6750   34.3240   43.3480 C   0  0  0  0  0  0  0  0  0  0  0  0
   46.6680   33.6090   44.4930 N   0  0  0  0  0  0  0  0  0  0  0  0
   45.8030   33.8320   45.4900 C   0  0  0  0  0  0  0  0  0  0  0  0
   44.8680   34.8160   45.3860 N   0  0  0  0  0  0  0  0  0  0  0  0
   46.7600   32.0710   47.1490 C   0  0  0  0  0  0  0  0  0  0  0  0
   47.5470   32.3000   48.2560 C   0  0  0  0  0  0  0  0  0  0  0  0
   48.5010   31.3860   48.7200 C   0  0  0  0  0  0  0  0  0  0  0  0
   48.6850   30.1960   48.0580 C   0  0  0  0  0  0  0  0  0  0  0  0
   47.9110   29.9420   46.9460 C   0  0  0  0  0  0  0  0  0  0  0  0
   46.9870   30.8570   46.5200 C   0  0  0  0  0  0  0  0  0  0  0  0
   44.1068   36.3371   44.1563 H   0  0  0  0  0  0  0  0  0  0  0  0
   45.6966   35.9634   42.2742 H   0  0  0  0  0  0  0  0  0  0  0  0
   47.4063   34.1042   42.5562 H   0  0  0  0  0  0  0  0  0  0  0  0
   47.4200   33.2465   48.8019 H   0  0  0  0  0  0  0  0  0  0  0  0
   49.1012   31.6199   49.6116 H   0  0  0  0  0  0  0  0  0  0  0  0
   49.4301   29.4655   48.4062 H   0  0  0  0  0  0  0  0  0  0  0  0
   48.0370   28.9971   46.3972 H   0  0  0  0  0  0  0  0  0  0  0  0
   46.3906   30.6154   45.6278 H   0  0  0  0  0  0  0  0  0  0  0  0
  1  9  1  0
  1  2  2  0
  3  8  2  0
  4  5  2  0
  4  3  1  0
  5  6  1  0
  6  7  2  0
  7  1  1  0
  8  7  1  0
  9 10  2  0
 10 11  1  0
 12 11  2  0
 13 12  1  0
 14 13  2  0
 14  9  1  0
  3 15  1  0
  4 16  1  0
  5 17  1  0
 10 18  1  0
 11 19  1  0
 12 20  1  0
 13 21  1  0
 14 22  1  0
M  ISO  8  15  14  16  14  17  14  18  14  19  14  20  14  21  14  22  14
M  END
>  <minimizedAffinity>  (1) 
-4.5356636

>  <minimizedRMSD>  (1) 
0.992685258

$$$$
