
     RDKit          3D

 21 22  0  0  0  0  0  0  0  0999 V2000
   45.7880   32.9510   46.8660 C   0  0  0  0  0  0  0  0  0  0  0  0
   44.8360   33.1950   47.6440 O   0  0  0  0  0  0  0  0  0  0  0  0
   45.1140   35.2160   44.0950 C   0  0  0  0  0  0  0  0  0  0  0  0
   46.1280   34.9240   43.1710 C   0  0  0  0  0  0  0  0  0  0  0  0
   47.0570   33.9330   43.5060 C   0  0  0  0  0  0  0  0  0  0  0  0
   46.9330   33.3010   44.7090 N   0  0  0  0  0  0  0  0  0  0  0  0
   45.9480   33.6120   45.5650 C   0  0  0  0  0  0  0  0  0  0  0  0
   45.0380   34.5710   45.2540 N   0  0  0  0  0  0  0  0  0  0  0  0
   46.7720   31.9530   47.3070 C   0  0  0  0  0  0  0  0  0  0  0  0
   47.6670   32.3100   48.2770 C   0  0  0  0  0  0  0  0  0  0  0  0
   48.6490   31.4570   48.7830 C   0  0  0  0  0  0  0  0  0  0  0  0
   48.6780   30.1800   48.2350 C   0  0  0  0  0  0  0  0  0  0  0  0
   47.7550   29.8600   47.2580 C   0  0  0  0  0  0  0  0  0  0  0  0
   46.8240   30.7100   46.7960 N   0  0  0  0  0  0  0  0  0  0  0  0
   44.3704   35.9907   43.8565 H   0  0  0  0  0  0  0  0  0  0  0  0
   46.1910   35.4583   42.2115 H   0  0  0  0  0  0  0  0  0  0  0  0
   47.8703   33.6688   42.8141 H   0  0  0  0  0  0  0  0  0  0  0  0
   47.6097   33.3307   48.6830 H   0  0  0  0  0  0  0  0  0  0  0  0
   49.3544   31.7748   49.5649 H   0  0  0  0  0  0  0  0  0  0  0  0
   49.4194   29.4405   48.5717 H   0  0  0  0  0  0  0  0  0  0  0  0
   47.7847   28.8461   46.8323 H   0  0  0  0  0  0  0  0  0  0  0  0
  1  9  1  0
  1  2  2  0
  3  8  2  0
  4  5  2  0
  4  3  1  0
  5  6  1  0
  6  7  2  0
  7  1  1  0
  8  7  1  0
  9 10  2  0
 10 11  1  0
 12 11  2  0
 13 12  1  0
 14 13  2  0
 14  9  1  0
  3 15  1  0
  4 16  1  0
  5 17  1  0
 10 18  1  0
 11 19  1  0
 12 20  1  0
 13 21  1  0
M  ISO  7  15  14  16  14  17  14  18  14  19  14  20  14  21  14
M  END
>  <minimizedAffinity>  (1) 
-4.25598431

>  <minimizedRMSD>  (1) 
1.29582322

$$$$
