
     RDKit          3D

 24 25  0  0  0  0  0  0  0  0999 V2000
   44.6570   35.9680   44.2990 C   0  0  0  0  0  0  0  0  0  0  0  0
   45.4880   35.7140   43.1810 C   0  0  0  0  0  0  0  0  0  0  0  0
   46.3460   34.6120   43.2560 C   0  0  0  0  0  0  0  0  0  0  0  0
   46.3320   33.8520   44.3940 N   0  0  0  0  0  0  0  0  0  0  0  0
   45.5110   34.1480   45.4330 C   0  0  0  0  0  0  0  0  0  0  0  0
   44.6790   35.2000   45.3830 N   0  0  0  0  0  0  0  0  0  0  0  0
   45.5100   33.3310   46.6320 C   0  0  0  0  0  0  0  0  0  0  0  0
   44.7400   33.5890   47.6120 O   0  0  0  0  0  0  0  0  0  0  0  0
   46.4090   32.2060   46.6970 N   0  0  0  0  0  0  0  0  0  0  0  0
   46.4290   31.0570   45.7880 C   0  0  0  0  0  0  0  0  0  0  0  0
   47.7030   30.3460   46.1940 C   0  0  0  0  0  0  0  0  0  0  0  0
   47.6160   30.5480   47.7080 C   0  0  0  0  0  0  0  0  0  0  0  0
   47.4590   32.0510   47.7140 C   0  0  0  0  0  0  0  0  0  0  0  0
   43.9718   36.8280   44.2691 H   0  0  0  0  0  0  0  0  0  0  0  0
   45.4599   36.3575   42.2893 H   0  0  0  0  0  0  0  0  0  0  0  0
   47.0161   34.3621   42.4202 H   0  0  0  0  0  0  0  0  0  0  0  0
   46.4710   31.3808   44.7376 H   0  0  0  0  0  0  0  0  0  0  0  0
   45.5311   30.4253   45.8569 H   0  0  0  0  0  0  0  0  0  0  0  0
   47.6873   29.2813   45.9181 H   0  0  0  0  0  0  0  0  0  0  0  0
   48.6237   30.7157   45.7190 H   0  0  0  0  0  0  0  0  0  0  0  0
   46.7463   30.0370   48.1468 H   0  0  0  0  0  0  0  0  0  0  0  0
   48.4556   30.1491   48.2962 H   0  0  0  0  0  0  0  0  0  0  0  0
   48.3893   32.5591   47.4201 H   0  0  0  0  0  0  0  0  0  0  0  0
   47.2192   32.4863   48.6953 H   0  0  0  0  0  0  0  0  0  0  0  0
  1  6  2  0
  2  3  2  0
  2  1  1  0
  3  4  1  0
  4  5  2  0
  5  7  1  0
  6  5  1  0
  7  9  1  0
  7  8  2  0
  9 13  1  0
 10 11  1  0
 10  9  1  0
 11 12  1  0
 12 13  1  0
  1 14  1  0
  2 15  1  0
  3 16  1  0
 10 17  1  0
 10 18  1  0
 11 19  1  0
 11 20  1  0
 12 21  1  0
 12 22  1  0
 13 23  1  0
 13 24  1  0
M  ISO  8  14  14  15  14  16  14  17  13  18  13  19  13  20  13  21  13
M  ISO  3  22  13  23  13  24  13
M  END
>  <minimizedAffinity>  (1) 
-4.2228241

>  <minimizedRMSD>  (1) 
0.790304959

$$$$
