
     RDKit          3D

 19 20  0  0  0  0  0  0  0  0999 V2000
   44.5190   35.8520   44.6820 C   0  0  0  0  0  0  0  0  0  0  0  0
   45.1870   35.7660   43.4570 C   0  0  0  0  0  0  0  0  0  0  0  0
   46.1060   34.7230   43.3200 C   0  0  0  0  0  0  0  0  0  0  0  0
   46.3050   33.8550   44.3680 N   0  0  0  0  0  0  0  0  0  0  0  0
   45.6290   34.0000   45.5100 C   0  0  0  0  0  0  0  0  0  0  0  0
   44.7410   34.9900   45.6710 N   0  0  0  0  0  0  0  0  0  0  0  0
   45.8050   33.1110   46.6390 C   0  0  0  0  0  0  0  0  0  0  0  0
   45.0260   33.0360   47.6150 O   0  0  0  0  0  0  0  0  0  0  0  0
   46.9220   32.1450   46.8380 C   0  0  0  0  0  0  0  0  0  0  0  0
   46.8110   31.0340   47.7830 C   0  0  0  0  0  0  0  0  0  0  0  0
   47.6100   32.2400   48.1590 C   0  0  0  0  0  0  0  0  0  0  0  0
   43.7862   36.6583   44.8332 H   0  0  0  0  0  0  0  0  0  0  0  0
   44.9988   36.4822   42.6436 H   0  0  0  0  0  0  0  0  0  0  0  0
   46.6659   34.5970   42.3816 H   0  0  0  0  0  0  0  0  0  0  0  0
   47.1994   32.1812   45.7742 H   0  0  0  0  0  0  0  0  0  0  0  0
   45.8522   30.8336   48.2835 H   0  0  0  0  0  0  0  0  0  0  0  0
   47.0148   29.9541   47.7358 H   0  0  0  0  0  0  0  0  0  0  0  0
   48.7069   32.1813   48.2175 H   0  0  0  0  0  0  0  0  0  0  0  0
   47.6087   32.9537   48.9960 H   0  0  0  0  0  0  0  0  0  0  0  0
  1  6  2  0
  2  1  1  0
  3  2  2  0
  3  4  1  0
  4  5  2  0
  5  6  1  0
  5  7  1  0
  7  9  1  0
  7  8  2  0
  9 10  1  0
  9 11  1  0
 10 11  1  0
  1 12  1  0
  2 13  1  0
  3 14  1  0
  9 15  1  0
 10 16  1  0
 10 17  1  0
 11 18  1  0
 11 19  1  0
M  ISO  8  12  14  13  14  14  14  15  13  16  13  17  13  18  13  19  13
M  END
>  <minimizedAffinity>  (1) 
-3.99384069

>  <minimizedRMSD>  (1) 
0.431124985

$$$$
