
     RDKit          3D

 18 19  0  0  0  0  0  0  0  0999 V2000
   44.7130   36.0400   44.0420 C   0  0  0  0  0  0  0  0  0  0  0  0
   45.5870   35.7110   43.0000 C   0  0  0  0  0  0  0  0  0  0  0  0
   46.4060   34.5920   43.1700 C   0  0  0  0  0  0  0  0  0  0  0  0
   46.3230   33.8820   44.3210 N   0  0  0  0  0  0  0  0  0  0  0  0
   45.4580   34.2390   45.3070 C   0  0  0  0  0  0  0  0  0  0  0  0
   44.6620   35.3170   45.1540 N   0  0  0  0  0  0  0  0  0  0  0  0
   45.3600   33.4860   46.5450 C   0  0  0  0  0  0  0  0  0  0  0  0
   44.6400   33.8950   47.5090 O   0  0  0  0  0  0  0  0  0  0  0  0
   46.0990   32.2290   46.7030 C   0  0  0  0  0  0  0  0  0  0  0  0
   47.1590   32.3240   47.5050 C   0  0  0  0  0  0  0  0  0  0  0  0
   47.8670   30.5610   47.4890 S   0  0  0  0  0  0  0  0  0  0  0  0
   46.4640   30.0560   46.3110 C   0  0  0  0  0  0  0  0  0  0  0  0
   45.9230   31.0340   46.2120 N   0  0  0  0  0  0  0  0  0  0  0  0
   44.0550   36.9153   43.9375 H   0  0  0  0  0  0  0  0  0  0  0  0
   45.6278   36.3121   42.0797 H   0  0  0  0  0  0  0  0  0  0  0  0
   47.1093   34.2912   42.3795 H   0  0  0  0  0  0  0  0  0  0  0  0
   47.5326   33.2070   48.0443 H   0  0  0  0  0  0  0  0  0  0  0  0
   46.2441   29.0796   45.8546 H   0  0  0  0  0  0  0  0  0  0  0  0
  1  6  2  0
  2  3  2  0
  2  1  1  0
  3  4  1  0
  4  5  2  0
  5  7  1  0
  6  5  1  0
  7  9  1  0
  7  8  2  0
  9 10  2  0
 11 10  1  0
 12 11  1  0
 13 12  2  0
 13  9  1  0
  1 14  1  0
  2 15  1  0
  3 16  1  0
 10 17  1  0
 12 18  1  0
M  ISO  5  14  14  15  14  16  14  17  14  18  14
M  END
>  <minimizedAffinity>  (1) 
-3.87504125

>  <minimizedRMSD>  (1) 
1.25879323

$$$$
