
     RDKit          3D

 32 34  0  0  0  0  0  0  0  0999 V2000
   44.6420   30.2590   47.5470 Cl  0  0  0  0  0  0  0  0  0  0  0  0
   46.1500   29.6010   46.8910 C   0  0  0  0  0  0  0  0  0  0  0  0
   47.2040   30.4170   46.6820 C   0  0  0  0  0  0  0  0  0  0  0  0
   48.3490   29.8480   46.1890 C   0  0  0  0  0  0  0  0  0  0  0  0
   48.4340   28.5100   45.9130 C   0  0  0  0  0  0  0  0  0  0  0  0
   47.3340   27.6680   46.1320 C   0  0  0  0  0  0  0  0  0  0  0  0
   46.1740   28.2480   46.6330 C   0  0  0  0  0  0  0  0  0  0  0  0
   43.9360   27.9250   44.9270 F   0  0  0  0  0  0  0  0  0  0  0  0
   43.8740   27.2250   46.0950 C   0  0  0  0  0  0  0  0  0  0  0  0
   44.9870   27.4210   46.8850 C   0  0  0  0  0  0  0  0  0  0  0  0
   45.1030   26.7850   48.1240 C   0  0  0  0  0  0  0  0  0  0  0  0
   44.0710   25.9430   48.5540 C   0  0  0  0  0  0  0  0  0  0  0  0
   42.9610   25.7640   47.7430 C   0  0  0  0  0  0  0  0  0  0  0  0
   42.8740   26.3990   46.5350 C   0  0  0  0  0  0  0  0  0  0  0  0
   47.0960   31.8340   46.9610 C   0  0  0  0  0  0  0  0  0  0  0  0
   47.4630   32.2080   48.1150 O   0  0  0  0  0  0  0  0  0  0  0  0
   45.0960   34.4590   45.4600 C   0  0  0  0  0  0  0  0  0  0  0  0
   45.6070   34.6190   44.1810 C   0  0  0  0  0  0  0  0  0  0  0  0
   46.6690   33.7840   43.8510 C   0  0  0  0  0  0  0  0  0  0  0  0
   47.1320   32.8900   44.7710 N   0  0  0  0  0  0  0  0  0  0  0  0
   46.5990   32.7790   45.9920 C   0  0  0  0  0  0  0  0  0  0  0  0
   45.5810   33.5720   46.3230 N   0  0  0  0  0  0  0  0  0  0  0  0
   49.2268   30.4861   46.0095 H   0  0  0  0  0  0  0  0  0  0  0  0
   49.3713   28.0924   45.5168 H   0  0  0  0  0  0  0  0  0  0  0  0
   47.3869   26.5908   45.9158 H   0  0  0  0  0  0  0  0  0  0  0  0
   45.9921   26.9438   48.7519 H   0  0  0  0  0  0  0  0  0  0  0  0
   44.1399   25.4292   49.5242 H   0  0  0  0  0  0  0  0  0  0  0  0
   42.1439   25.1061   48.0738 H   0  0  0  0  0  0  0  0  0  0  0  0
   41.9853   26.2437   45.9056 H   0  0  0  0  0  0  0  0  0  0  0  0
   44.2536   35.0930   45.7738 H   0  0  0  0  0  0  0  0  0  0  0  0
   45.1996   35.3571   43.4745 H   0  0  0  0  0  0  0  0  0  0  0  0
   47.1323   33.8442   42.8551 H   0  0  0  0  0  0  0  0  0  0  0  0
  2  1  1  0
  3  2  2  0
  3 15  1  0
  4  3  1  0
  5  6  1  0
  5  4  2  0
  6  7  2  0
  7 10  1  0
  7  2  1  0
  8  9  1  0
  9 14  2  0
  9 10  1  0
 10 11  2  0
 11 12  1  0
 13 12  2  0
 14 13  1  0
 15 16  2  0
 17 22  2  0
 18 17  1  0
 19 18  2  0
 19 20  1  0
 20 21  2  0
 21 22  1  0
 21 15  1  0
  4 23  1  0
  5 24  1  0
  6 25  1  0
 11 26  1  0
 12 27  1  0
 13 28  1  0
 14 29  1  0
 17 30  1  0
 18 31  1  0
 19 32  1  0
M  ISO  8  23  14  24  14  25  14  26  14  27  14  28  14  29  14  30  14
M  ISO  2  31  14  32  14
M  END
>  <minimizedAffinity>  (1) 
-4.94686556

>  <minimizedRMSD>  (1) 
2.49863553

$$$$
