
     RDKit          3D

 24 25  0  0  0  0  0  0  0  0999 V2000
   44.7110   31.0890   48.4580 Cl  0  0  0  0  0  0  0  0  0  0  0  0
   45.9190   30.8410   47.1950 C   0  0  0  0  0  0  0  0  0  0  0  0
   46.2480   31.8590   46.3600 C   0  0  0  0  0  0  0  0  0  0  0  0
   47.1990   31.6260   45.4000 C   0  0  0  0  0  0  0  0  0  0  0  0
   47.8040   30.3960   45.2840 C   0  0  0  0  0  0  0  0  0  0  0  0
   47.4590   29.3380   46.1540 C   0  0  0  0  0  0  0  0  0  0  0  0
   46.4930   29.5840   47.1250 C   0  0  0  0  0  0  0  0  0  0  0  0
   46.1040   28.5590   48.0310 N   0  0  0  0  0  0  0  0  0  0  0  0
   45.5890   33.1420   46.4960 C   0  0  0  0  0  0  0  0  0  0  0  0
   45.1130   33.4140   47.6370 O   0  0  0  0  0  0  0  0  0  0  0  0
   44.5500   36.0310   44.5560 C   0  0  0  0  0  0  0  0  0  0  0  0
   45.2210   35.9080   43.3450 C   0  0  0  0  0  0  0  0  0  0  0  0
   46.0430   34.7860   43.2230 C   0  0  0  0  0  0  0  0  0  0  0  0
   46.1380   33.9110   44.2560 N   0  0  0  0  0  0  0  0  0  0  0  0
   45.4730   34.0720   45.4050 C   0  0  0  0  0  0  0  0  0  0  0  0
   44.6790   35.1430   45.5380 N   0  0  0  0  0  0  0  0  0  0  0  0
   47.4827   32.4357   44.7116 H   0  0  0  0  0  0  0  0  0  0  0  0
   48.5644   30.2347   44.5056 H   0  0  0  0  0  0  0  0  0  0  0  0
   47.9383   28.3518   46.0668 H   0  0  0  0  0  0  0  0  0  0  0  0
   45.3883   28.7489   48.7470 H   0  0  0  0  0  0  0  0  0  0  0  0
   46.5380   27.6268   47.9712 H   0  0  0  0  0  0  0  0  0  0  0  0
   43.8871   36.8955   44.7081 H   0  0  0  0  0  0  0  0  0  0  0  0
   45.1117   36.6457   42.5364 H   0  0  0  0  0  0  0  0  0  0  0  0
   46.6095   34.6125   42.2962 H   0  0  0  0  0  0  0  0  0  0  0  0
  2  1  1  0
  3  9  1  0
  3  2  2  0
  4  3  1  0
  5  4  2  0
  5  6  1  0
  6  7  2  0
  7  2  1  0
  7  8  1  0
  9 10  2  0
 11 16  2  0
 12 11  1  0
 13 12  2  0
 13 14  1  0
 14 15  2  0
 15 16  1  0
 15  9  1  0
  4 17  1  0
  5 18  1  0
  6 19  1  0
  8 20  1  0
  8 21  1  0
 11 22  1  0
 12 23  1  0
 13 24  1  0
M  ISO  6  17  14  18  14  19  14  22  14  23  14  24  14
M  END
>  <minimizedAffinity>  (1) 
-4.82131767

>  <minimizedRMSD>  (1) 
0.2162949

$$$$
