
     RDKit          3D

 32 34  0  0  0  0  0  0  0  0999 V2000
   44.6030   30.6320   47.2780 Cl  0  0  0  0  0  0  0  0  0  0  0  0
   45.9080   30.1270   46.1810 C   0  0  0  0  0  0  0  0  0  0  0  0
   46.8740   31.0040   45.8410 C   0  0  0  0  0  0  0  0  0  0  0  0
   47.8640   30.5530   45.0100 C   0  0  0  0  0  0  0  0  0  0  0  0
   47.8710   29.2600   44.5410 C   0  0  0  0  0  0  0  0  0  0  0  0
   46.8560   28.3570   44.9020 C   0  0  0  0  0  0  0  0  0  0  0  0
   45.8760   28.8260   45.7340 C   0  0  0  0  0  0  0  0  0  0  0  0
   43.5390   29.0550   43.9500 Cl  0  0  0  0  0  0  0  0  0  0  0  0
   43.6670   28.0030   45.3350 C   0  0  0  0  0  0  0  0  0  0  0  0
   44.7850   27.9250   46.1490 C   0  0  0  0  0  0  0  0  0  0  0  0
   44.8110   27.0660   47.2300 C   0  0  0  0  0  0  0  0  0  0  0  0
   43.7230   26.2740   47.5150 C   0  0  0  0  0  0  0  0  0  0  0  0
   42.6100   26.3570   46.6980 C   0  0  0  0  0  0  0  0  0  0  0  0
   41.2370   25.3490   47.0660 Cl  0  0  0  0  0  0  0  0  0  0  0  0
   42.5490   27.2140   45.5980 C   0  0  0  0  0  0  0  0  0  0  0  0
   46.8330   32.3630   46.3370 C   0  0  0  0  0  0  0  0  0  0  0  0
   47.3960   32.5690   47.4530 O   0  0  0  0  0  0  0  0  0  0  0  0
   44.6310   35.1440   45.5860 C   0  0  0  0  0  0  0  0  0  0  0  0
   44.9280   35.5050   44.2740 C   0  0  0  0  0  0  0  0  0  0  0  0
   45.9230   34.7440   43.6580 C   0  0  0  0  0  0  0  0  0  0  0  0
   46.5190   33.7330   44.3550 N   0  0  0  0  0  0  0  0  0  0  0  0
   46.1920   33.4310   45.6160 C   0  0  0  0  0  0  0  0  0  0  0  0
   45.2430   34.1480   46.2190 N   0  0  0  0  0  0  0  0  0  0  0  0
   48.6705   31.2388   44.7112 H   0  0  0  0  0  0  0  0  0  0  0  0
   48.6812   28.9283   43.8750 H   0  0  0  0  0  0  0  0  0  0  0  0
   46.8498   27.3209   44.5326 H   0  0  0  0  0  0  0  0  0  0  0  0
   45.7066   27.0148   47.8666 H   0  0  0  0  0  0  0  0  0  0  0  0
   43.7378   25.5886   48.3752 H   0  0  0  0  0  0  0  0  0  0  0  0
   41.6524   27.2646   44.9628 H   0  0  0  0  0  0  0  0  0  0  0  0
   43.8546   35.7088   46.1229 H   0  0  0  0  0  0  0  0  0  0  0  0
   44.4150   36.3311   43.7598 H   0  0  0  0  0  0  0  0  0  0  0  0
   46.2237   34.9569   42.6215 H   0  0  0  0  0  0  0  0  0  0  0  0
  2  1  1  0
  3  2  2  0
  3 16  1  0
  4  3  1  0
  5  6  1  0
  5  4  2  0
  6  7  2  0
  7 10  1  0
  7  2  1  0
  8  9  1  0
  9 15  2  0
  9 10  1  0
 10 11  2  0
 11 12  1  0
 13 14  1  0
 13 12  2  0
 15 13  1  0
 16 17  2  0
 18 23  2  0
 19 18  1  0
 20 19  2  0
 20 21  1  0
 21 22  2  0
 22 23  1  0
 22 16  1  0
  4 24  1  0
  5 25  1  0
  6 26  1  0
 11 27  1  0
 12 28  1  0
 15 29  1  0
 18 30  1  0
 19 31  1  0
 20 32  1  0
M  ISO  8  24  14  25  14  26  14  27  14  28  14  29  14  30  14  31  14
M  ISO  1  32  14
M  END
>  <minimizedAffinity>  (1) 
-4.71763897

>  <minimizedRMSD>  (1) 
2.76162243

$$$$
