
     RDKit          3D

 39 42  0  0  0  0  0  0  0  0999 V2000
   46.9530   32.2330   46.6960 C   0  0  0  0  0  0  0  0  0  0  0  0
   47.4100   32.5550   47.8140 O   0  0  0  0  0  0  0  0  0  0  0  0
   44.8280   30.6120   47.9910 Cl  0  0  0  0  0  0  0  0  0  0  0  0
   46.0360   29.9740   46.8710 C   0  0  0  0  0  0  0  0  0  0  0  0
   46.9850   30.8170   46.3350 C   0  0  0  0  0  0  0  0  0  0  0  0
   47.9050   30.2830   45.4830 C   0  0  0  0  0  0  0  0  0  0  0  0
   47.8830   28.9450   45.1710 C   0  0  0  0  0  0  0  0  0  0  0  0
   46.9350   28.1020   45.7040 C   0  0  0  0  0  0  0  0  0  0  0  0
   46.0010   28.6420   46.5680 C   0  0  0  0  0  0  0  0  0  0  0  0
   45.0330   27.6700   47.0770 C   0  0  0  0  0  0  0  0  0  0  0  0
   43.9050   27.1380   46.4720 C   0  0  0  0  0  0  0  0  0  0  0  0
   43.2500   26.2430   47.2900 C   0  0  0  0  0  0  0  0  0  0  0  0
   44.0460   26.2670   48.4230 C   0  0  0  0  0  0  0  0  0  0  0  0
   45.0340   27.0890   48.2430 O   0  0  0  0  0  0  0  0  0  0  0  0
   44.8210   34.8480   45.3730 C   0  0  0  0  0  0  0  0  0  0  0  0
   45.2850   35.1030   44.0710 C   0  0  0  0  0  0  0  0  0  0  0  0
   46.3570   34.3310   43.6890 C   0  0  0  0  0  0  0  0  0  0  0  0
   46.8760   33.4120   44.5550 N   0  0  0  0  0  0  0  0  0  0  0  0
   46.4050   33.2070   45.7740 C   0  0  0  0  0  0  0  0  0  0  0  0
   45.3630   33.9430   46.1730 N   0  0  0  0  0  0  0  0  0  0  0  0
   46.9750   34.4510   42.3750 C   0  0  0  0  0  0  0  0  0  0  0  0
   48.0740   35.2400   42.1190 C   0  0  0  0  0  0  0  0  0  0  0  0
   48.6730   35.3660   40.8820 C   0  0  0  0  0  0  0  0  0  0  0  0
   48.1460   34.6540   39.8070 C   0  0  0  0  0  0  0  0  0  0  0  0
   47.0440   33.8510   40.0270 C   0  0  0  0  0  0  0  0  0  0  0  0
   46.4860   33.7640   41.2860 C   0  0  0  0  0  0  0  0  0  0  0  0
   48.6750   30.9314   45.0395 H   0  0  0  0  0  0  0  0  0  0  0  0
   48.6382   28.5397   44.4815 H   0  0  0  0  0  0  0  0  0  0  0  0
   46.9209   27.0317   45.4504 H   0  0  0  0  0  0  0  0  0  0  0  0
   43.5715   27.3998   45.4570 H   0  0  0  0  0  0  0  0  0  0  0  0
   42.3362   25.6627   47.0946 H   0  0  0  0  0  0  0  0  0  0  0  0
   43.8681   25.6794   49.3357 H   0  0  0  0  0  0  0  0  0  0  0  0
   43.9648   35.4293   45.7459 H   0  0  0  0  0  0  0  0  0  0  0  0
   44.8288   35.8570   43.4127 H   0  0  0  0  0  0  0  0  0  0  0  0
   48.5036   35.8084   42.9571 H   0  0  0  0  0  0  0  0  0  0  0  0
   49.5499   36.0163   40.7476 H   0  0  0  0  0  0  0  0  0  0  0  0
   48.5969   34.7295   38.8065 H   0  0  0  0  0  0  0  0  0  0  0  0
   46.6091   33.2782   39.1947 H   0  0  0  0  0  0  0  0  0  0  0  0
   45.6090   33.1151   41.4266 H   0  0  0  0  0  0  0  0  0  0  0  0
  1  2  2  0
  4  3  1  0
  5  1  1  0
  5  4  2  0
  6  5  1  0
  7  6  2  0
  7  8  1  0
  8  9  2  0
  9  4  1  0
  9 10  1  0
 10 14  1  0
 11 10  2  0
 11 12  1  0
 12 13  2  0
 14 13  1  0
 15 20  2  0
 16 15  1  0
 17 16  2  0
 17 18  1  0
 18 19  2  0
 19 20  1  0
 19  1  1  0
 21 17  1  0
 22 21  2  0
 23 22  1  0
 24 25  1  0
 24 23  2  0
 25 26  2  0
 26 21  1  0
  6 27  1  0
  7 28  1  0
  8 29  1  0
 11 30  1  0
 12 31  1  0
 13 32  1  0
 15 33  1  0
 16 34  1  0
 22 35  1  0
 23 36  1  0
 24 37  1  0
 25 38  1  0
 26 39  1  0
M  ISO  8  27  14  28  14  29  14  30  14  31  14  32  14  33  14  34  14
M  ISO  5  35  14  36  14  37  14  38  14  39  14
M  END
>  <minimizedAffinity>  (1) 
-6.56649256

>  <minimizedRMSD>  (1) 
0.331863105

$$$$
