
     RDKit          3D

 43 46  0  0  0  0  0  0  0  0999 V2000
   46.9590   32.2270   46.6390 C   0  0  0  0  0  0  0  0  0  0  0  0
   47.4250   32.5400   47.7560 O   0  0  0  0  0  0  0  0  0  0  0  0
   44.8600   30.6060   47.9750 Cl  0  0  0  0  0  0  0  0  0  0  0  0
   46.0410   29.9770   46.8190 C   0  0  0  0  0  0  0  0  0  0  0  0
   46.9770   30.8140   46.2640 C   0  0  0  0  0  0  0  0  0  0  0  0
   47.8710   30.2810   45.3860 C   0  0  0  0  0  0  0  0  0  0  0  0
   47.8360   28.9430   45.0660 C   0  0  0  0  0  0  0  0  0  0  0  0
   46.8930   28.1000   45.6240 C   0  0  0  0  0  0  0  0  0  0  0  0
   45.9860   28.6400   46.5150 C   0  0  0  0  0  0  0  0  0  0  0  0
   45.0290   27.6730   47.0440 C   0  0  0  0  0  0  0  0  0  0  0  0
   43.8950   27.1340   46.4560 C   0  0  0  0  0  0  0  0  0  0  0  0
   43.2500   26.2480   47.2790 C   0  0  0  0  0  0  0  0  0  0  0  0
   44.0540   26.2750   48.4070 C   0  0  0  0  0  0  0  0  0  0  0  0
   45.0460   27.0960   48.2200 O   0  0  0  0  0  0  0  0  0  0  0  0
   44.8150   34.8420   45.3310 C   0  0  0  0  0  0  0  0  0  0  0  0
   45.2970   35.1260   44.0390 C   0  0  0  0  0  0  0  0  0  0  0  0
   46.3980   34.3680   43.6440 C   0  0  0  0  0  0  0  0  0  0  0  0
   46.9020   33.4440   44.5130 N   0  0  0  0  0  0  0  0  0  0  0  0
   46.4070   33.2160   45.7220 C   0  0  0  0  0  0  0  0  0  0  0  0
   45.3550   33.9280   46.1210 N   0  0  0  0  0  0  0  0  0  0  0  0
   47.0010   34.5390   42.3620 N   0  0  0  0  0  0  0  0  0  0  0  0
   48.2840   35.2420   42.2700 C   0  0  0  0  0  0  0  0  0  0  0  0
   48.7230   35.3780   40.8550 C   0  0  0  0  0  0  0  0  0  0  0  0
   48.5500   34.0730   40.2140 N   0  0  0  0  0  0  0  0  0  0  0  0
   47.1270   33.9490   39.9700 C   0  0  0  0  0  0  0  0  0  0  0  0
   46.3070   34.0060   41.2110 C   0  0  0  0  0  0  0  0  0  0  0  0
   48.6317   30.9289   44.9261 H   0  0  0  0  0  0  0  0  0  0  0  0
   48.5704   28.5376   44.3545 H   0  0  0  0  0  0  0  0  0  0  0  0
   46.8658   27.0310   45.3661 H   0  0  0  0  0  0  0  0  0  0  0  0
   43.5515   27.3889   45.4426 H   0  0  0  0  0  0  0  0  0  0  0  0
   42.3343   25.6677   47.0928 H   0  0  0  0  0  0  0  0  0  0  0  0
   43.8800   25.6906   49.3225 H   0  0  0  0  0  0  0  0  0  0  0  0
   43.9473   35.4074   45.7018 H   0  0  0  0  0  0  0  0  0  0  0  0
   44.8396   35.8879   43.3908 H   0  0  0  0  0  0  0  0  0  0  0  0
   48.1762   36.2443   42.7101 H   0  0  0  0  0  0  0  0  0  0  0  0
   49.0407   34.6584   42.8148 H   0  0  0  0  0  0  0  0  0  0  0  0
   48.1090   36.1329   40.3420 H   0  0  0  0  0  0  0  0  0  0  0  0
   49.7740   35.6987   40.8042 H   0  0  0  0  0  0  0  0  0  0  0  0
   49.0722   34.0352   39.3270 H   0  0  0  0  0  0  0  0  0  0  0  0
   46.8141   34.7694   39.3074 H   0  0  0  0  0  0  0  0  0  0  0  0
   46.9604   32.9610   39.5159 H   0  0  0  0  0  0  0  0  0  0  0  0
   45.4295   34.6396   41.0146 H   0  0  0  0  0  0  0  0  0  0  0  0
   46.0400   32.9680   41.4586 H   0  0  0  0  0  0  0  0  0  0  0  0
  1  2  2  0
  4  3  1  0
  5  1  1  0
  5  4  2  0
  6  5  1  0
  7  6  2  0
  7  8  1  0
  8  9  2  0
  9  4  1  0
  9 10  1  0
 10 14  1  0
 11 10  2  0
 11 12  1  0
 12 13  2  0
 14 13  1  0
 15 20  2  0
 16 15  1  0
 17 16  2  0
 17 18  1  0
 18 19  2  0
 19 20  1  0
 19  1  1  0
 21 17  1  0
 22 21  1  0
 23 22  1  0
 24 23  1  0
 25 24  1  0
 25 26  1  0
 26 21  1  0
  6 27  1  0
  7 28  1  0
  8 29  1  0
 11 30  1  0
 12 31  1  0
 13 32  1  0
 15 33  1  0
 16 34  1  0
 22 35  1  0
 22 36  1  0
 23 37  1  0
 23 38  1  0
 24 39  1  0
 25 40  1  0
 25 41  1  0
 26 42  1  0
 26 43  1  0
M  ISO  8  27  14  28  14  29  14  30  14  31  14  32  14  33  14  34  14
M  ISO  8  35  13  36  13  37  13  38  13  39   5  40  13  41  13  42  13
M  ISO  1  43  13
M  END
>  <minimizedAffinity>  (1) 
-5.94207859

>  <minimizedRMSD>  (1) 
0.273991644

$$$$
