
     RDKit          3D

 29 30  0  0  0  0  0  0  0  0999 V2000
   46.0550   33.3770   45.6420 C   0  0  0  0  0  0  0  0  0  0  0  0
   46.6720   33.1080   44.5350 C   0  0  0  0  0  0  0  0  0  0  0  0
   47.5300   31.0500   48.0880 C   0  0  0  0  0  0  0  0  0  0  0  0
   46.6040   31.1170   49.1500 C   0  0  0  0  0  0  0  0  0  0  0  0
   45.5010   31.9670   48.9770 C   0  0  0  0  0  0  0  0  0  0  0  0
   45.3730   32.6760   47.8210 N   0  0  0  0  0  0  0  0  0  0  0  0
   46.2940   32.5710   46.8360 C   0  0  0  0  0  0  0  0  0  0  0  0
   47.3460   31.7760   46.9700 N   0  0  0  0  0  0  0  0  0  0  0  0
   46.4140   33.9420   43.3230 C   0  0  0  0  0  0  0  0  0  0  0  0
   47.5660   34.7070   42.9490 N   0  0  0  0  0  0  0  0  0  0  0  0
   48.8160   34.0160   43.1480 C   0  0  0  0  0  0  0  0  0  0  0  0
   49.8000   34.6650   42.1780 C   0  0  0  0  0  0  0  0  0  0  0  0
   48.9610   35.7430   41.4730 C   0  0  0  0  0  0  0  0  0  0  0  0
   47.5950   35.0480   41.5480 C   0  0  0  0  0  0  0  0  0  0  0  0
   45.3468   34.2177   45.6827 H   0  0  0  0  0  0  0  0  0  0  0  0
   47.3824   32.2695   44.4879 H   0  0  0  0  0  0  0  0  0  0  0  0
   48.4115   30.3977   48.1746 H   0  0  0  0  0  0  0  0  0  0  0  0
   46.7402   30.5305   50.0706 H   0  0  0  0  0  0  0  0  0  0  0  0
   44.7444   32.0602   49.7700 H   0  0  0  0  0  0  0  0  0  0  0  0
   46.1389   33.2810   42.4878 H   0  0  0  0  0  0  0  0  0  0  0  0
   45.5992   34.6429   43.5572 H   0  0  0  0  0  0  0  0  0  0  0  0
   49.1617   34.1378   44.1851 H   0  0  0  0  0  0  0  0  0  0  0  0
   48.7180   32.9353   42.9676 H   0  0  0  0  0  0  0  0  0  0  0  0
   50.6440   35.1170   42.7196 H   0  0  0  0  0  0  0  0  0  0  0  0
   50.2440   33.9440   41.4758 H   0  0  0  0  0  0  0  0  0  0  0  0
   49.2858   35.9090   40.4352 H   0  0  0  0  0  0  0  0  0  0  0  0
   49.0104   36.7509   41.9109 H   0  0  0  0  0  0  0  0  0  0  0  0
   46.7748   35.7288   41.2762 H   0  0  0  0  0  0  0  0  0  0  0  0
   47.4684   34.1983   40.8610 H   0  0  0  0  0  0  0  0  0  0  0  0
  1  7  1  0
  2  1  2  0
  3  4  2  0
  5  4  1  0
  6  5  2  0
  7  8  2  0
  7  6  1  0
  8  3  1  0
  9  2  1  0
 10 11  1  0
 10  9  1  0
 12 11  1  0
 13 14  1  0
 13 12  1  0
 14 10  1  0
  1 15  1  0
  2 16  1  0
  3 17  1  0
  4 18  1  0
  5 19  1  0
  9 20  1  0
  9 21  1  0
 11 22  1  0
 11 23  1  0
 12 24  1  0
 12 25  1  0
 13 26  1  0
 13 27  1  0
 14 28  1  0
 14 29  1  0
M  ISO  8  17  14  18  14  19  14  20   8  21   8  22  13  23  13  24  13
M  ISO  5  25  13  26  13  27  13  28  13  29  13
M  END
>  <minimizedAffinity>  (1) 
-4.39937353

>  <minimizedRMSD>  (1) 
6.82642317

$$$$
