
     RDKit          3D

 45 47  0  0  1  0  0  0  0  0999 V2000
   45.7190   31.8620   47.1190 C   0  0  2  0  0  0  0  0  0  0  0  0
   45.7270   32.4250   48.5310 C   0  0  0  0  0  0  0  0  0  0  0  0
   46.1400   31.1320   49.2350 C   0  0  0  0  0  0  0  0  0  0  0  0
   47.1410   30.6160   48.4430 O   0  0  0  0  0  0  0  0  0  0  0  0
   46.9490   31.0430   47.1460 C   0  0  1  0  0  0  0  0  0  0  0  0
   46.6990   28.5890   47.0930 C   0  0  1  0  0  0  0  0  0  0  0  0
   46.8950   29.8020   46.2550 C   0  0  1  0  0  0  0  0  0  0  0  0
   45.9530   30.0330   45.2870 O   0  0  0  0  0  0  0  0  0  0  0  0
   44.9600   29.0940   45.1810 C   0  0  0  0  0  0  0  0  0  0  0  0
   44.3340   28.7380   46.5060 C   0  0  2  0  0  0  0  0  0  0  0  0
   45.3090   28.3280   47.5590 C   0  0  2  0  0  0  0  0  0  0  0  0
   47.1870   27.4580   46.4400 O   0  0  0  0  0  0  0  0  0  0  0  0
   43.4870   27.6370   46.2430 O   0  0  0  0  0  0  0  0  0  0  0  0
   45.0610   28.9290   48.8080 O   0  0  0  0  0  0  0  0  0  0  0  0
   45.6510   32.9060   46.0630 C   0  0  0  0  0  0  0  0  0  0  0  0
   46.9400   33.1170   43.9910 C   0  0  0  0  0  0  0  0  0  0  0  0
   46.9300   33.0800   45.3110 C   0  0  0  0  0  0  0  0  0  0  0  0
   49.9210   34.5420   42.3840 C   0  0  0  0  0  0  0  0  0  0  0  0
   50.6270   33.3620   41.9980 C   0  0  0  0  0  0  0  0  0  0  0  0
   50.0340   32.1330   42.3120 C   0  0  0  0  0  0  0  0  0  0  0  0
   48.8410   32.1380   42.9560 N   0  0  0  0  0  0  0  0  0  0  0  0
   48.2110   33.2910   43.3020 C   0  0  0  0  0  0  0  0  0  0  0  0
   48.7390   34.4870   43.0220 N   0  0  0  0  0  0  0  0  0  0  0  0
   44.8263   31.2773   46.8521 H   0  0  0  0  0  0  0  0  0  0  0  0
   46.4650   33.2304   48.6603 H   0  0  0  0  0  0  0  0  0  0  0  0
   44.8000   32.9043   48.8787 H   0  0  0  0  0  0  0  0  0  0  0  0
   46.5143   31.3426   50.2477 H   0  0  0  0  0  0  0  0  0  0  0  0
   45.2990   30.4334   49.3564 H   0  0  0  0  0  0  0  0  0  0  0  0
   47.7635   31.6774   46.7664 H   0  0  0  0  0  0  0  0  0  0  0  0
   47.2727   28.8061   48.0061 H   0  0  0  0  0  0  0  0  0  0  0  0
   47.8386   29.6036   45.7255 H   0  0  0  0  0  0  0  0  0  0  0  0
   44.1754   29.4884   44.5185 H   0  0  0  0  0  0  0  0  0  0  0  0
   45.4183   28.1780   44.7798 H   0  0  0  0  0  0  0  0  0  0  0  0
   43.8222   29.6295   46.8976 H   0  0  0  0  0  0  0  0  0  0  0  0
   45.1808   27.2476   47.7210 H   0  0  0  0  0  0  0  0  0  0  0  0
   47.4757   26.7889   47.1101 H   0  0  0  0  0  0  0  0  0  0  0  0
   43.1834   27.2424   47.0987 H   0  0  0  0  0  0  0  0  0  0  0  0
   45.3187   28.3045   49.5317 H   0  0  0  0  0  0  0  0  0  0  0  0
   44.8626   32.6270   45.3484 H   0  0  0  0  0  0  0  0  0  0  0  0
   45.4403   33.8610   46.5666 H   0  0  0  0  0  0  0  0  0  0  0  0
   46.0041   33.0181   43.4216 H   0  0  0  0  0  0  0  0  0  0  0  0
   47.8758   33.1786   45.8640 H   0  0  0  0  0  0  0  0  0  0  0  0
   50.3573   35.5248   42.1524 H   0  0  0  0  0  0  0  0  0  0  0  0
   51.5942   33.4163   41.4769 H   0  0  0  0  0  0  0  0  0  0  0  0
   50.5245   31.1860   42.0426 H   0  0  0  0  0  0  0  0  0  0  0  0
  1  5  1  0
  1  2  1  0
  2  3  1  0
  4  3  1  0
  5  4  1  0
  6 12  1  0
  6 11  1  0
  7  8  1  0
  7  6  1  0
  7  5  1  0
  9  8  1  0
  9 10  1  0
 10 13  1  0
 10 11  1  0
 11 14  1  0
 15  1  1  0
 16 17  2  0
 17 15  1  0
 18 23  2  0
 19 20  2  0
 19 18  1  0
 20 21  1  0
 21 22  2  0
 22 16  1  0
 23 22  1  0
  1 24  1  1
  2 25  1  0
  2 26  1  0
  3 27  1  0
  3 28  1  0
  5 29  1  6
  6 30  1  1
  7 31  1  6
  9 32  1  0
  9 33  1  0
 10 34  1  1
 11 35  1  1
 12 36  1  0
 13 37  1  0
 14 38  1  0
 15 39  1  0
 15 40  1  0
 16 41  1  0
 17 42  1  0
 18 43  1  0
 19 44  1  0
 20 45  1  0
M  ISO  8  24  13  25  13  26  13  27  13  28  13  29  13  30  13  31  13
M  ISO  8  32  13  33  13  34  13  35  13  36   3  37   3  38   3  39   8
M  ISO  4  40   8  43  14  44  14  45  14
M  END
>  <minimizedAffinity>  (1) 
-4.90925169

>  <minimizedRMSD>  (1) 
4.08465099

$$$$
