
     RDKit          3D

 30 31  0  0  1  0  0  0  0  0999 V2000
   46.9860   30.3720   46.1900 C   0  0  0  0  0  0  0  0  0  0  0  0
   46.5510   30.5560   47.6030 C   0  0  2  0  0  0  0  0  0  0  0  0
   45.0460   30.7660   47.7430 C   0  0  0  0  0  0  0  0  0  0  0  0
   45.0810   31.2190   49.2110 C   0  0  0  0  0  0  0  0  0  0  0  0
   46.1410   32.0950   49.2700 O   0  0  0  0  0  0  0  0  0  0  0  0
   47.0210   31.8080   48.2450 C   0  0  1  0  0  0  0  0  0  0  0  0
   48.3730   31.6980   48.8520 C   0  0  0  0  0  0  0  0  0  0  0  0
   48.4970   30.6810   49.5260 O   0  0  0  0  0  0  0  0  0  0  0  0
   47.5550   31.7180   44.2130 C   0  0  0  0  0  0  0  0  0  0  0  0
   47.0180   31.6420   45.4140 C   0  0  0  0  0  0  0  0  0  0  0  0
   46.5350   34.8810   42.6860 C   0  0  0  0  0  0  0  0  0  0  0  0
   47.7550   35.3400   42.0820 C   0  0  0  0  0  0  0  0  0  0  0  0
   48.8750   34.5050   42.2450 C   0  0  0  0  0  0  0  0  0  0  0  0
   48.7760   33.3310   42.9460 N   0  0  0  0  0  0  0  0  0  0  0  0
   47.5660   32.9720   43.4910 C   0  0  0  0  0  0  0  0  0  0  0  0
   46.4850   33.7220   43.3650 N   0  0  0  0  0  0  0  0  0  0  0  0
   47.9963   29.9369   46.1895 H   0  0  0  0  0  0  0  0  0  0  0  0
   46.2507   29.7126   45.7058 H   0  0  0  0  0  0  0  0  0  0  0  0
   46.9545   29.6385   48.0562 H   0  0  0  0  0  0  0  0  0  0  0  0
   44.6611   31.5442   47.0675 H   0  0  0  0  0  0  0  0  0  0  0  0
   44.3960   29.9134   47.4970 H   0  0  0  0  0  0  0  0  0  0  0  0
   44.1428   31.7231   49.4860 H   0  0  0  0  0  0  0  0  0  0  0  0
   45.1922   30.3761   49.9090 H   0  0  0  0  0  0  0  0  0  0  0  0
   47.0691   32.5809   47.4638 H   0  0  0  0  0  0  0  0  0  0  0  0
   49.1704   32.4428   48.7128 H   0  0  0  0  0  0  0  0  0  0  0  0
   47.9984   30.8212   43.7557 H   0  0  0  0  0  0  0  0  0  0  0  0
   46.5786   32.5474   45.8580 H   0  0  0  0  0  0  0  0  0  0  0  0
   45.6239   35.4900   42.5910 H   0  0  0  0  0  0  0  0  0  0  0  0
   47.8099   36.2873   41.5256 H   0  0  0  0  0  0  0  0  0  0  0  0
   49.8402   34.7969   41.8055 H   0  0  0  0  0  0  0  0  0  0  0  0
  1  2  1  0
  2  3  1  0
  2  6  1  0
  3  4  1  0
  4  5  1  0
  6  7  1  0
  6  5  1  0
  7  8  2  0
  9 10  2  0
 10  1  1  0
 11 16  2  0
 12 13  2  0
 12 11  1  0
 13 14  1  0
 14 15  2  0
 15  9  1  0
 16 15  1  0
  1 17  1  0
  1 18  1  0
  2 19  1  1
  3 20  1  0
  3 21  1  0
  4 22  1  0
  4 23  1  0
  6 24  1  6
  7 25  1  0
  9 26  1  0
 10 27  1  0
 11 28  1  0
 12 29  1  0
 13 30  1  0
M  ISO  8  17   8  18   8  19  13  20  13  21  13  22  13  23  13  24  13
M  ISO  4  25   6  28  14  29  14  30  14
M  END
>  <minimizedAffinity>  (1) 
-4.03598356

>  <minimizedRMSD>  (1) 
0.954755545

$$$$
