
     RDKit          3D

 31 32  0  0  1  0  0  0  0  0999 V2000
   46.7590   30.2670   46.2360 C   0  0  0  0  0  0  0  0  0  0  0  0
   46.4330   30.5150   47.6640 C   0  0  2  0  0  0  0  0  0  0  0  0
   44.9270   30.6730   47.9000 C   0  0  0  0  0  0  0  0  0  0  0  0
   45.0480   31.2160   49.3330 C   0  0  0  0  0  0  0  0  0  0  0  0
   46.0690   32.1490   49.2570 O   0  0  0  0  0  0  0  0  0  0  0  0
   46.8860   31.8250   48.2080 C   0  0  1  0  0  0  0  0  0  0  0  0
   48.3130   31.7960   48.6920 C   0  0  0  0  0  0  0  0  0  0  0  0
   47.5180   31.6280   44.3310 C   0  0  0  0  0  0  0  0  0  0  0  0
   46.7840   31.5060   45.4190 C   0  0  0  0  0  0  0  0  0  0  0  0
   46.5100   34.8410   42.8650 C   0  0  0  0  0  0  0  0  0  0  0  0
   47.6580   35.1390   42.0490 C   0  0  0  0  0  0  0  0  0  0  0  0
   48.7260   34.2140   42.0440 C   0  0  0  0  0  0  0  0  0  0  0  0
   48.6210   33.0850   42.8110 N   0  0  0  0  0  0  0  0  0  0  0  0
   47.5120   32.8570   43.5620 C   0  0  0  0  0  0  0  0  0  0  0  0
   46.5040   33.7040   43.5810 N   0  0  0  0  0  0  0  0  0  0  0  0
   47.7494   29.7916   46.1808 H   0  0  0  0  0  0  0  0  0  0  0  0
   45.9679   29.6213   45.8271 H   0  0  0  0  0  0  0  0  0  0  0  0
   46.9207   29.6480   48.1336 H   0  0  0  0  0  0  0  0  0  0  0  0
   44.4615   31.3925   47.2103 H   0  0  0  0  0  0  0  0  0  0  0  0
   44.2985   29.7826   47.7511 H   0  0  0  0  0  0  0  0  0  0  0  0
   44.1082   31.6910   49.6510 H   0  0  0  0  0  0  0  0  0  0  0  0
   45.2544   30.4240   50.0680 H   0  0  0  0  0  0  0  0  0  0  0  0
   46.8348   32.5676   47.3981 H   0  0  0  0  0  0  0  0  0  0  0  0
   48.3272   31.7957   49.7919 H   0  0  0  0  0  0  0  0  0  0  0  0
   48.8084   30.8876   48.3187 H   0  0  0  0  0  0  0  0  0  0  0  0
   48.8449   32.6835   48.3187 H   0  0  0  0  0  0  0  0  0  0  0  0
   48.1439   30.7855   44.0019 H   0  0  0  0  0  0  0  0  0  0  0  0
   46.1640   32.3580   45.7347 H   0  0  0  0  0  0  0  0  0  0  0  0
   45.6541   35.5310   42.9016 H   0  0  0  0  0  0  0  0  0  0  0  0
   47.7023   36.0590   41.4476 H   0  0  0  0  0  0  0  0  0  0  0  0
   49.6241   34.3974   41.4358 H   0  0  0  0  0  0  0  0  0  0  0  0
  1  2  1  0
  2  3  1  0
  2  6  1  0
  3  4  1  0
  5  4  1  0
  6  7  1  0
  6  5  1  0
  8  9  2  0
  9  1  1  0
 10 15  2  0
 11 10  1  0
 12 11  2  0
 12 13  1  0
 13 14  2  0
 14 15  1  0
 14  8  1  0
  1 16  1  0
  1 17  1  0
  2 18  1  1
  3 19  1  0
  3 20  1  0
  4 21  1  0
  4 22  1  0
  6 23  1  6
  7 24  1  0
  7 25  1  0
  7 26  1  0
  8 27  1  0
  9 28  1  0
 10 29  1  0
 11 30  1  0
 12 31  1  0
M  ISO  8  16   8  17   8  18  13  19  13  20  13  21  13  22  13  23  13
M  ISO  6  24   8  25   8  26   8  29  14  30  14  31  14
M  END
>  <minimizedAffinity>  (1) 
-3.95435619

>  <minimizedRMSD>  (1) 
0.805473447

$$$$
