
     RDKit          3D

 29 30  0  0  1  0  0  0  0  0999 V2000
   46.9290   31.1280   45.5230 C   0  0  0  0  0  0  0  0  0  0  0  0
   47.3940   31.3730   46.9220 C   0  0  2  0  0  0  0  0  0  0  0  0
   48.2430   30.2080   47.4570 C   0  0  0  0  0  0  0  0  0  0  0  0
   48.1940   30.6040   48.9260 C   0  0  0  0  0  0  0  0  0  0  0  0
   46.9040   31.0450   49.1480 O   0  0  0  0  0  0  0  0  0  0  0  0
   46.3020   31.2980   47.9500 C   0  0  1  0  0  0  0  0  0  0  0  0
   45.1540   32.6670   47.9340 S   0  0  0  0  0  0  0  0  0  0  0  0
   47.9500   32.1350   43.5320 C   0  0  0  0  0  0  0  0  0  0  0  0
   47.1930   32.2630   44.6030 C   0  0  0  0  0  0  0  0  0  0  0  0
   47.6540   34.5830   40.8110 C   0  0  0  0  0  0  0  0  0  0  0  0
   48.7430   35.4620   41.0980 C   0  0  0  0  0  0  0  0  0  0  0  0
   49.5400   35.1710   42.2260 C   0  0  0  0  0  0  0  0  0  0  0  0
   49.2300   34.0680   42.9820 N   0  0  0  0  0  0  0  0  0  0  0  0
   48.1800   33.2680   42.6600 C   0  0  0  0  0  0  0  0  0  0  0  0
   47.4290   33.5280   41.6110 N   0  0  0  0  0  0  0  0  0  0  0  0
   47.4463   30.2381   45.1351 H   0  0  0  0  0  0  0  0  0  0  0  0
   45.8382   30.9923   45.5641 H   0  0  0  0  0  0  0  0  0  0  0  0
   47.8844   32.3528   46.8248 H   0  0  0  0  0  0  0  0  0  0  0  0
   47.7794   29.2283   47.2693 H   0  0  0  0  0  0  0  0  0  0  0  0
   49.2417   30.0817   47.0136 H   0  0  0  0  0  0  0  0  0  0  0  0
   48.4191   29.7375   49.5652 H   0  0  0  0  0  0  0  0  0  0  0  0
   48.9365   31.3800   49.1638 H   0  0  0  0  0  0  0  0  0  0  0  0
   45.6147   30.4737   47.7089 H   0  0  0  0  0  0  0  0  0  0  0  0
   44.8532   33.0258   49.2215 H   0  0  0  0  0  0  0  0  0  0  0  0
   48.4093   31.1630   43.2993 H   0  0  0  0  0  0  0  0  0  0  0  0
   46.7423   33.2421   44.8224 H   0  0  0  0  0  0  0  0  0  0  0  0
   47.0054   34.7687   39.9422 H   0  0  0  0  0  0  0  0  0  0  0  0
   48.9530   36.3348   40.4623 H   0  0  0  0  0  0  0  0  0  0  0  0
   50.3912   35.8143   42.4935 H   0  0  0  0  0  0  0  0  0  0  0  0
  1  2  1  0
  2  3  1  0
  2  6  1  0
  3  4  1  0
  4  5  1  0
  6  5  1  0
  7  6  1  0
  8  9  2  0
  9  1  1  0
 10 11  2  0
 10 15  1  0
 11 12  1  0
 12 13  2  0
 14 13  1  0
 14  8  1  0
 15 14  2  0
  1 16  1  0
  1 17  1  0
  2 18  1  6
  3 19  1  0
  3 20  1  0
  4 21  1  0
  4 22  1  0
  6 23  1  6
  7 24  1  0
  8 25  1  0
  9 26  1  0
 10 27  1  0
 11 28  1  0
 12 29  1  0
M  ISO  8  16   8  17   8  18  13  19  13  20  13  21  13  22  13  23  13
M  ISO  4  24  11  27  14  28  14  29  14
M  END
>  <minimizedAffinity>  (1) 
-3.91377306

>  <minimizedRMSD>  (1) 
1.69777393

$$$$
