
     RDKit          3D

 39 41  0  0  1  0  0  0  0  0999 V2000
   46.1560   30.5570   47.3500 C   0  0  2  0  0  0  0  0  0  0  0  0
   44.8740   31.1480   47.9110 C   0  0  0  0  0  0  0  0  0  0  0  0
   45.4050   31.5150   49.2900 C   0  0  0  0  0  0  0  0  0  0  0  0
   46.6550   32.0350   49.0580 O   0  0  0  0  0  0  0  0  0  0  0  0
   47.1340   31.5690   47.8630 C   0  0  1  0  0  0  0  0  0  0  0  0
   48.4810   30.9610   48.0870 C   0  0  1  0  0  0  0  0  0  0  0  0
   49.0930   31.4070   49.4020 C   0  0  0  0  0  0  0  0  0  0  0  0
   49.6730   30.1260   49.9410 C   0  0  0  0  0  0  0  0  0  0  0  0
   49.6320   29.2020   48.8940 O   0  0  0  0  0  0  0  0  0  0  0  0
   48.3790   29.4510   48.3380 C   0  0  0  0  0  0  0  0  0  0  0  0
   46.1240   30.4270   45.8670 C   0  0  0  0  0  0  0  0  0  0  0  0
   47.1380   31.7210   44.0590 C   0  0  0  0  0  0  0  0  0  0  0  0
   46.4390   31.6910   45.1550 C   0  0  0  0  0  0  0  0  0  0  0  0
   46.7090   34.9740   42.4580 C   0  0  0  0  0  0  0  0  0  0  0  0
   48.0420   35.3110   42.0770 C   0  0  0  0  0  0  0  0  0  0  0  0
   49.0410   34.3830   42.3980 C   0  0  0  0  0  0  0  0  0  0  0  0
   48.7110   33.2300   43.0410 N   0  0  0  0  0  0  0  0  0  0  0  0
   47.4260   32.9580   43.3820 C   0  0  0  0  0  0  0  0  0  0  0  0
   46.4300   33.8070   43.1020 N   0  0  0  0  0  0  0  0  0  0  0  0
   46.3808   29.5230   47.6506 H   0  0  0  0  0  0  0  0  0  0  0  0
   44.5371   32.0289   47.3448 H   0  0  0  0  0  0  0  0  0  0  0  0
   43.9884   30.4959   47.8893 H   0  0  0  0  0  0  0  0  0  0  0  0
   44.7565   32.2638   49.7682 H   0  0  0  0  0  0  0  0  0  0  0  0
   45.4349   30.6488   49.9673 H   0  0  0  0  0  0  0  0  0  0  0  0
   47.2445   32.3758   47.1235 H   0  0  0  0  0  0  0  0  0  0  0  0
   49.0540   31.2489   47.1932 H   0  0  0  0  0  0  0  0  0  0  0  0
   49.8769   32.1615   49.2403 H   0  0  0  0  0  0  0  0  0  0  0  0
   48.3720   31.8831   50.0827 H   0  0  0  0  0  0  0  0  0  0  0  0
   50.7115   30.2861   50.2664 H   0  0  0  0  0  0  0  0  0  0  0  0
   49.1048   29.7668   50.8117 H   0  0  0  0  0  0  0  0  0  0  0  0
   47.5676   29.2098   49.0404 H   0  0  0  0  0  0  0  0  0  0  0  0
   48.1459   28.8522   47.4452 H   0  0  0  0  0  0  0  0  0  0  0  0
   46.8602   29.6663   45.5682 H   0  0  0  0  0  0  0  0  0  0  0  0
   45.0975   30.1460   45.5888 H   0  0  0  0  0  0  0  0  0  0  0  0
   47.5184   30.7782   43.6391 H   0  0  0  0  0  0  0  0  0  0  0  0
   46.0667   32.6389   45.5707 H   0  0  0  0  0  0  0  0  0  0  0  0
   45.8900   35.6710   42.2268 H   0  0  0  0  0  0  0  0  0  0  0  0
   48.2736   36.2524   41.5572 H   0  0  0  0  0  0  0  0  0  0  0  0
   50.0887   34.5856   42.1312 H   0  0  0  0  0  0  0  0  0  0  0  0
  1  5  1  0
  1  2  1  0
  2  3  1  0
  4  3  1  0
  5  6  1  0
  5  4  1  0
  6 10  1  0
  6  7  1  0
  7  8  1  0
  9  8  1  0
 10  9  1  0
 11  1  1  0
 12 13  2  0
 13 11  1  0
 14 19  2  0
 15 16  2  0
 15 14  1  0
 16 17  1  0
 17 18  2  0
 18 12  1  0
 19 18  1  0
  1 20  1  1
  2 21  1  0
  2 22  1  0
  3 23  1  0
  3 24  1  0
  5 25  1  6
  6 26  1  6
  7 27  1  0
  7 28  1  0
  8 29  1  0
  8 30  1  0
 10 31  1  0
 10 32  1  0
 11 33  1  0
 11 34  1  0
 12 35  1  0
 13 36  1  0
 14 37  1  0
 15 38  1  0
 16 39  1  0
M  ISO  8  20  13  21  13  22  13  23  13  24  13  25  13  26  13  27  13
M  ISO  8  28  13  29  13  30  13  31  13  32  13  33   8  34   8  37  14
M  ISO  2  38  14  39  14
M  END
>  <minimizedAffinity>  (1) 
-4.35191584

>  <minimizedRMSD>  (1) 
1.86603498

$$$$
