
     RDKit          3D

 55 59  0  0  1  0  0  0  0  0999 V2000
   45.8090   30.1710   46.0950 C   0  0  0  0  0  0  0  0  0  0  0  0
   45.9660   30.3930   47.5670 C   0  0  2  0  0  0  0  0  0  0  0  0
   44.7130   30.9620   48.2050 C   0  0  0  0  0  0  0  0  0  0  0  0
   45.3590   31.4110   49.5130 C   0  0  0  0  0  0  0  0  0  0  0  0
   46.5640   31.9650   49.1380 O   0  0  0  0  0  0  0  0  0  0  0  0
   46.9430   31.4500   47.9280 C   0  0  1  0  0  0  0  0  0  0  0  0
   48.3310   30.8890   48.0490 C   0  0  1  0  0  0  0  0  0  0  0  0
   49.0140   31.3850   49.3190 C   0  0  0  0  0  0  0  0  0  0  0  0
   49.7020   30.1330   49.8030 C   0  0  0  0  0  0  0  0  0  0  0  0
   49.6250   29.2030   48.7540 O   0  0  0  0  0  0  0  0  0  0  0  0
   48.3130   29.3910   48.3140 C   0  0  0  0  0  0  0  0  0  0  0  0
   47.2540   31.0510   44.3430 C   0  0  0  0  0  0  0  0  0  0  0  0
   46.3810   31.2650   45.2690 C   0  0  0  0  0  0  0  0  0  0  0  0
   47.9540   34.3760   43.0050 C   0  0  0  0  0  0  0  0  0  0  0  0
   48.8880   34.0920   41.9800 C   0  0  0  0  0  0  0  0  0  0  0  0
   49.2550   32.7730   41.7810 C   0  0  0  0  0  0  0  0  0  0  0  0
   48.6820   31.8310   42.5910 N   0  0  0  0  0  0  0  0  0  0  0  0
   47.7980   32.1280   43.5540 C   0  0  0  0  0  0  0  0  0  0  0  0
   47.4360   33.3820   43.7640 N   0  0  0  0  0  0  0  0  0  0  0  0
   50.1270   32.2470   40.7570 C   0  0  0  0  0  0  0  0  0  0  0  0
   51.4460   31.9670   41.1480 C   0  0  0  0  0  0  0  0  0  0  0  0
   52.4260   31.4730   40.3170 C   0  0  0  0  0  0  0  0  0  0  0  0
   52.1280   31.2230   38.9970 C   0  0  0  0  0  0  0  0  0  0  0  0
   50.8510   31.4800   38.5540 C   0  0  0  0  0  0  0  0  0  0  0  0
   50.5360   31.2720   37.2300 C   0  0  0  0  0  0  0  0  0  0  0  0
   49.2700   31.5490   36.7050 C   0  0  0  0  0  0  0  0  0  0  0  0
   48.3440   32.0540   37.6250 C   0  0  0  0  0  0  0  0  0  0  0  0
   48.6940   32.2470   38.9390 C   0  0  0  0  0  0  0  0  0  0  0  0
   49.9230   31.9730   39.4340 C   0  0  0  0  0  0  0  0  0  0  0  0
   46.3151   29.2315   45.8282 H   0  0  0  0  0  0  0  0  0  0  0  0
   44.7298   30.1361   45.8852 H   0  0  0  0  0  0  0  0  0  0  0  0
   46.2574   29.3888   47.9086 H   0  0  0  0  0  0  0  0  0  0  0  0
   44.2935   31.8024   47.6325 H   0  0  0  0  0  0  0  0  0  0  0  0
   43.8511   30.2837   48.2886 H   0  0  0  0  0  0  0  0  0  0  0  0
   44.7300   32.1578   50.0196 H   0  0  0  0  0  0  0  0  0  0  0  0
   45.4868   30.5784   50.2205 H   0  0  0  0  0  0  0  0  0  0  0  0
   46.9552   32.2213   47.1438 H   0  0  0  0  0  0  0  0  0  0  0  0
   48.8256   31.1787   47.1101 H   0  0  0  0  0  0  0  0  0  0  0  0
   49.7394   32.1822   49.0993 H   0  0  0  0  0  0  0  0  0  0  0  0
   48.3254   31.8291   50.0529 H   0  0  0  0  0  0  0  0  0  0  0  0
   50.7537   30.3468   50.0445 H   0  0  0  0  0  0  0  0  0  0  0  0
   49.2240   29.7442   50.7142 H   0  0  0  0  0  0  0  0  0  0  0  0
   47.5806   29.1231   49.0898 H   0  0  0  0  0  0  0  0  0  0  0  0
   48.0221   28.7730   47.4518 H   0  0  0  0  0  0  0  0  0  0  0  0
   47.5913   30.0217   44.1510 H   0  0  0  0  0  0  0  0  0  0  0  0
   46.0478   32.2969   45.4536 H   0  0  0  0  0  0  0  0  0  0  0  0
   47.6456   35.4161   43.1868 H   0  0  0  0  0  0  0  0  0  0  0  0
   49.3098   34.8966   41.3597 H   0  0  0  0  0  0  0  0  0  0  0  0
   51.7167   32.1566   42.1972 H   0  0  0  0  0  0  0  0  0  0  0  0
   53.4373   31.2800   40.7043 H   0  0  0  0  0  0  0  0  0  0  0  0
   52.8925   30.8271   38.3123 H   0  0  0  0  0  0  0  0  0  0  0  0
   51.3105   30.8723   36.5589 H   0  0  0  0  0  0  0  0  0  0  0  0
   49.0202   31.3823   35.6468 H   0  0  0  0  0  0  0  0  0  0  0  0
   47.3247   32.2990   37.2920 H   0  0  0  0  0  0  0  0  0  0  0  0
   47.9336   32.6461   39.6264 H   0  0  0  0  0  0  0  0  0  0  0  0
  1  2  1  0
  2  6  1  0
  2  3  1  0
  3  4  1  0
  5  4  1  0
  6  7  1  0
  6  5  1  0
  7 11  1  0
  7  8  1  0
  8  9  1  0
 10  9  1  0
 11 10  1  0
 12 13  2  0
 13  1  1  0
 14 19  2  0
 15 14  1  0
 16 15  2  0
 16 17  1  0
 17 18  2  0
 18 19  1  0
 18 12  1  0
 20 21  2  0
 20 16  1  0
 22 21  1  0
 23 22  2  0
 24 23  1  0
 24 29  2  0
 25 24  1  0
 26 25  2  0
 26 27  1  0
 27 28  2  0
 28 29  1  0
 29 20  1  0
  1 30  1  0
  1 31  1  0
  2 32  1  1
  3 33  1  0
  3 34  1  0
  4 35  1  0
  4 36  1  0
  6 37  1  6
  7 38  1  6
  8 39  1  0
  8 40  1  0
  9 41  1  0
  9 42  1  0
 11 43  1  0
 11 44  1  0
 12 45  1  0
 13 46  1  0
 14 47  1  0
 15 48  1  0
 21 49  1  0
 22 50  1  0
 23 51  1  0
 25 52  1  0
 26 53  1  0
 27 54  1  0
 28 55  1  0
M  ISO  8  30   8  31   8  32  13  33  13  34  13  35  13  36  13  37  13
M  ISO  8  38  13  39  13  40  13  41  13  42  13  43  13  44  13  47  14
M  ISO  8  48  14  49  14  50  14  51  14  52  14  53  14  54  14  55  14
M  END
>  <minimizedAffinity>  (1) 
-5.49046659

>  <minimizedRMSD>  (1) 
2.32762837

$$$$
