
     RDKit          3D

 43 45  0  0  1  0  0  0  0  0999 V2000
   46.0980   30.4130   47.4480 C   0  0  2  0  0  0  0  0  0  0  0  0
   44.8260   30.9970   48.0260 C   0  0  0  0  0  0  0  0  0  0  0  0
   45.4080   31.4510   49.3580 C   0  0  0  0  0  0  0  0  0  0  0  0
   46.6330   31.9930   49.0370 O   0  0  0  0  0  0  0  0  0  0  0  0
   47.0680   31.4760   47.8510 C   0  0  1  0  0  0  0  0  0  0  0  0
   48.4460   30.9090   48.0450 C   0  0  1  0  0  0  0  0  0  0  0  0
   49.0680   31.4030   49.3420 C   0  0  0  0  0  0  0  0  0  0  0  0
   49.7090   30.1510   49.8770 C   0  0  0  0  0  0  0  0  0  0  0  0
   49.6950   29.2290   48.8330 O   0  0  0  0  0  0  0  0  0  0  0  0
   48.3970   29.4160   48.3310 C   0  0  0  0  0  0  0  0  0  0  0  0
   46.0070   30.1960   45.9780 C   0  0  0  0  0  0  0  0  0  0  0  0
   45.8500   31.9620   44.2900 C   0  0  0  0  0  0  0  0  0  0  0  0
   46.5430   31.3030   45.1640 C   0  0  0  0  0  0  0  0  0  0  0  0
   46.1720   34.7510   41.9520 C   0  0  0  0  0  0  0  0  0  0  0  0
   47.5570   35.0840   42.0650 C   0  0  0  0  0  0  0  0  0  0  0  0
   48.3190   34.3130   42.9590 C   0  0  0  0  0  0  0  0  0  0  0  0
   47.7430   33.3130   43.6630 N   0  0  0  0  0  0  0  0  0  0  0  0
   46.4140   33.0340   43.5180 C   0  0  0  0  0  0  0  0  0  0  0  0
   45.6420   33.7350   42.6830 N   0  0  0  0  0  0  0  0  0  0  0  0
   50.7060   33.8550   42.4490 C   0  0  0  0  0  0  0  0  0  0  0  0
   50.3230   32.8930   41.7060 O   0  0  0  0  0  0  0  0  0  0  0  0
   49.6920   34.6030   43.1060 N   0  0  0  0  0  0  0  0  0  0  0  0
   46.3646   29.4068   47.8035 H   0  0  0  0  0  0  0  0  0  0  0  0
   44.4407   31.8365   47.4287 H   0  0  0  0  0  0  0  0  0  0  0  0
   43.9574   30.3239   48.0758 H   0  0  0  0  0  0  0  0  0  0  0  0
   44.7604   32.2063   49.8272 H   0  0  0  0  0  0  0  0  0  0  0  0
   45.4943   30.6241   50.0783 H   0  0  0  0  0  0  0  0  0  0  0  0
   47.1228   32.2428   47.0642 H   0  0  0  0  0  0  0  0  0  0  0  0
   48.9882   31.1895   47.1300 H   0  0  0  0  0  0  0  0  0  0  0  0
   49.8168   32.1864   49.1534 H   0  0  0  0  0  0  0  0  0  0  0  0
   48.3465   31.8627   50.0335 H   0  0  0  0  0  0  0  0  0  0  0  0
   50.7433   30.3563   50.1902 H   0  0  0  0  0  0  0  0  0  0  0  0
   49.1688   29.7689   50.7557 H   0  0  0  0  0  0  0  0  0  0  0  0
   47.6291   29.1671   49.0782 H   0  0  0  0  0  0  0  0  0  0  0  0
   48.1346   28.7844   47.4694 H   0  0  0  0  0  0  0  0  0  0  0  0
   46.5684   29.2833   45.7296 H   0  0  0  0  0  0  0  0  0  0  0  0
   44.9363   30.1198   45.7378 H   0  0  0  0  0  0  0  0  0  0  0  0
   44.7952   31.6918   44.1340 H   0  0  0  0  0  0  0  0  0  0  0  0
   47.5960   31.5865   45.3079 H   0  0  0  0  0  0  0  0  0  0  0  0
   45.5285   35.3224   41.2668 H   0  0  0  0  0  0  0  0  0  0  0  0
   48.0040   35.9025   41.4817 H   0  0  0  0  0  0  0  0  0  0  0  0
   51.7719   34.0952   42.5758 H   0  0  0  0  0  0  0  0  0  0  0  0
   49.9701   35.3873   43.7130 H   0  0  0  0  0  0  0  0  0  0  0  0
  1  5  1  0
  1  2  1  0
  2  3  1  0
  4  3  1  0
  5  6  1  0
  5  4  1  0
  6 10  1  0
  6  7  1  0
  7  8  1  0
  9  8  1  0
 10  9  1  0
 11  1  1  0
 12 13  2  0
 13 11  1  0
 14 15  2  0
 14 19  1  0
 15 16  1  0
 16 22  1  0
 16 17  2  0
 18 17  1  0
 18 12  1  0
 19 18  2  0
 20 22  1  0
 21 20  2  0
  1 23  1  1
  2 24  1  0
  2 25  1  0
  3 26  1  0
  3 27  1  0
  5 28  1  6
  6 29  1  6
  7 30  1  0
  7 31  1  0
  8 32  1  0
  8 33  1  0
 10 34  1  0
 10 35  1  0
 11 36  1  0
 11 37  1  0
 12 38  1  0
 13 39  1  0
 14 40  1  0
 15 41  1  0
 20 42  1  0
 22 43  1  0
M  ISO  8  23  13  24  13  25  13  26  13  27  13  28  13  29  13  30  13
M  ISO  8  31  13  32  13  33  13  34  13  35  13  36   8  37   8  40  14
M  ISO  2  41  14  42   6
M  END
>  <minimizedAffinity>  (1) 
-5.26238918

>  <minimizedRMSD>  (1) 
0.689881325

$$$$
