
     RDKit          3D

 41 43  0  0  1  0  0  0  0  0999 V2000
   46.1510   30.5610   47.3600 C   0  0  2  0  0  0  0  0  0  0  0  0
   44.8540   31.1370   47.9240 C   0  0  0  0  0  0  0  0  0  0  0  0
   45.3740   31.4680   49.3060 C   0  0  0  0  0  0  0  0  0  0  0  0
   46.6250   32.0090   49.0970 O   0  0  0  0  0  0  0  0  0  0  0  0
   47.1200   31.5580   47.8980 C   0  0  1  0  0  0  0  0  0  0  0  0
   48.4640   30.9510   48.1200 C   0  0  1  0  0  0  0  0  0  0  0  0
   49.0680   31.3890   49.4450 C   0  0  0  0  0  0  0  0  0  0  0  0
   49.6470   30.1020   49.9630 C   0  0  0  0  0  0  0  0  0  0  0  0
   49.6290   29.1960   48.8980 O   0  0  0  0  0  0  0  0  0  0  0  0
   48.3580   29.4540   48.3620 C   0  0  0  0  0  0  0  0  0  0  0  0
   46.1360   30.4490   45.8760 C   0  0  0  0  0  0  0  0  0  0  0  0
   47.1650   31.7820   44.1120 C   0  0  0  0  0  0  0  0  0  0  0  0
   46.4240   31.7140   45.1800 C   0  0  0  0  0  0  0  0  0  0  0  0
   46.6700   35.0440   42.5330 C   0  0  0  0  0  0  0  0  0  0  0  0
   48.0130   35.4260   42.2040 C   0  0  0  0  0  0  0  0  0  0  0  0
   49.0230   34.5330   42.5440 C   0  0  0  0  0  0  0  0  0  0  0  0
   48.7080   33.3690   43.1590 N   0  0  0  0  0  0  0  0  0  0  0  0
   47.4270   33.0420   43.4550 C   0  0  0  0  0  0  0  0  0  0  0  0
   46.4200   33.8670   43.1470 N   0  0  0  0  0  0  0  0  0  0  0  0
   50.3900   34.8190   42.2600 N   0  0  0  0  0  0  0  0  0  0  0  0
   46.3750   29.5226   47.6455 H   0  0  0  0  0  0  0  0  0  0  0  0
   44.5191   32.0305   47.3768 H   0  0  0  0  0  0  0  0  0  0  0  0
   43.9688   30.4856   47.8777 H   0  0  0  0  0  0  0  0  0  0  0  0
   44.7159   32.1964   49.8024 H   0  0  0  0  0  0  0  0  0  0  0  0
   45.4107   30.5818   49.9566 H   0  0  0  0  0  0  0  0  0  0  0  0
   47.2397   32.3771   47.1736 H   0  0  0  0  0  0  0  0  0  0  0  0
   49.0424   31.2431   47.2311 H   0  0  0  0  0  0  0  0  0  0  0  0
   49.8500   32.1483   49.2966 H   0  0  0  0  0  0  0  0  0  0  0  0
   48.3456   31.8582   50.1290 H   0  0  0  0  0  0  0  0  0  0  0  0
   50.6794   30.2621   50.3071 H   0  0  0  0  0  0  0  0  0  0  0  0
   49.0658   29.7216   50.8160 H   0  0  0  0  0  0  0  0  0  0  0  0
   47.5580   29.2130   49.0775 H   0  0  0  0  0  0  0  0  0  0  0  0
   48.1048   28.8604   47.4712 H   0  0  0  0  0  0  0  0  0  0  0  0
   46.8927   29.7088   45.5767 H   0  0  0  0  0  0  0  0  0  0  0  0
   45.1171   30.1507   45.5883 H   0  0  0  0  0  0  0  0  0  0  0  0
   47.6014   30.8599   43.7005 H   0  0  0  0  0  0  0  0  0  0  0  0
   45.9935   32.6436   45.5806 H   0  0  0  0  0  0  0  0  0  0  0  0
   45.8358   35.7159   42.2829 H   0  0  0  0  0  0  0  0  0  0  0  0
   48.2336   36.3815   41.7056 H   0  0  0  0  0  0  0  0  0  0  0  0
   51.1224   34.1433   42.5206 H   0  0  0  0  0  0  0  0  0  0  0  0
   50.6455   35.7014   41.7942 H   0  0  0  0  0  0  0  0  0  0  0  0
  1  5  1  0
  1  2  1  0
  2  3  1  0
  4  3  1  0
  5  6  1  0
  5  4  1  0
  6 10  1  0
  6  7  1  0
  7  8  1  0
  9  8  1  0
 10  9  1  0
 11  1  1  0
 12 13  2  0
 13 11  1  0
 14 19  2  0
 15 14  1  0
 15 16  2  0
 16 17  1  0
 17 18  2  0
 18 12  1  0
 19 18  1  0
 20 16  1  0
  1 21  1  1
  2 22  1  0
  2 23  1  0
  3 24  1  0
  3 25  1  0
  5 26  1  6
  6 27  1  6
  7 28  1  0
  7 29  1  0
  8 30  1  0
  8 31  1  0
 10 32  1  0
 10 33  1  0
 11 34  1  0
 11 35  1  0
 12 36  1  0
 13 37  1  0
 14 38  1  0
 15 39  1  0
 20 40  1  0
 20 41  1  0
M  ISO  8  21  13  22  13  23  13  24  13  25  13  26  13  27  13  28  13
M  ISO  8  29  13  30  13  31  13  32  13  33  13  34   8  35   8  38  14
M  ISO  1  39  14
M  END
>  <minimizedAffinity>  (1) 
-4.77310991

>  <minimizedRMSD>  (1) 
0.107318506

$$$$
