
     RDKit          3D

 49 53  0  0  1  0  0  0  0  0999 V2000
   49.2750   34.0080   41.0970 C   0  0  2  0  0  0  0  0  0  0  0  0
   48.7090   35.4660   40.9310 C   0  0  0  0  0  0  0  0  0  0  0  0
   48.0380   34.2680   40.3530 C   0  0  1  0  0  0  0  0  0  0  0  0
   48.0280   33.3050   43.1600 N   0  0  0  0  0  0  0  0  0  0  0  0
   49.2460   33.4320   42.5030 C   0  0  0  0  0  0  0  0  0  0  0  0
   50.4140   33.1390   42.8710 O   0  0  0  0  0  0  0  0  0  0  0  0
   46.3150   32.1540   44.5110 C   0  0  1  0  0  0  0  0  0  0  0  0
   46.4480   31.4040   43.3370 C   0  0  0  0  0  0  0  0  0  0  0  0
   47.6750   32.1670   43.9280 C   0  0  1  0  0  0  0  0  0  0  0  0
   45.0380   34.0040   43.1960 C   0  0  0  0  0  0  0  0  0  0  0  0
   45.5430   33.4800   44.4320 C   0  0  0  0  0  0  0  0  0  0  0  0
   45.3330   34.2280   45.5720 C   0  0  0  0  0  0  0  0  0  0  0  0
   44.6740   35.4020   45.4800 N   0  0  0  0  0  0  0  0  0  0  0  0
   44.2020   35.8860   44.2980 C   0  0  0  0  0  0  0  0  0  0  0  0
   44.3970   35.1540   43.1250 N   0  0  0  0  0  0  0  0  0  0  0  0
   48.0830   34.0840   38.8540 C   0  0  0  0  0  0  0  0  0  0  0  0
   48.5220   34.9810   38.1470 O   0  0  0  0  0  0  0  0  0  0  0  0
   45.8540   31.1890   35.1830 C   0  0  0  0  0  0  0  0  0  0  0  0
   47.0870   32.0420   34.9160 C   0  0  0  0  0  0  0  0  0  0  0  0
   47.7620   32.1640   36.2180 N   0  0  0  0  0  0  0  0  0  0  0  0
   48.5930   32.1390   37.3740 C   0  0  0  0  0  0  0  0  0  0  0  0
   49.7610   31.6400   37.3790 O   0  0  0  0  0  0  0  0  0  0  0  0
   47.5950   32.8140   38.2410 C   0  0  2  0  0  0  0  0  0  0  0  0
   46.8220   32.9980   36.9860 C   0  0  2  0  0  0  0  0  0  0  0  0
   45.3590   31.9020   36.8050 S   0  0  0  0  0  0  0  0  0  0  0  0
   44.8000   31.4060   34.1490 C   0  0  0  0  0  0  0  0  0  0  0  0
   46.2100   29.7330   35.3140 C   0  0  0  0  0  0  0  0  0  0  0  0
   50.1990   33.4598   40.8609 H   0  0  0  0  0  0  0  0  0  0  0  0
   48.2665   35.9935   41.7889 H   0  0  0  0  0  0  0  0  0  0  0  0
   49.0870   36.4260   40.5495 H   0  0  0  0  0  0  0  0  0  0  0  0
   47.0127   33.8767   40.4281 H   0  0  0  0  0  0  0  0  0  0  0  0
   47.3485   34.0755   43.0853 H   0  0  0  0  0  0  0  0  0  0  0  0
   45.9194   31.8943   45.5040 H   0  0  0  0  0  0  0  0  0  0  0  0
   45.9795   31.7524   42.4047 H   0  0  0  0  0  0  0  0  0  0  0  0
   46.2421   30.3623   43.0497 H   0  0  0  0  0  0  0  0  0  0  0  0
   48.6899   31.9542   44.2949 H   0  0  0  0  0  0  0  0  0  0  0  0
   45.1911   33.4251   42.2733 H   0  0  0  0  0  0  0  0  0  0  0  0
   45.6990   33.8711   46.5460 H   0  0  0  0  0  0  0  0  0  0  0  0
   43.6700   36.8483   44.2674 H   0  0  0  0  0  0  0  0  0  0  0  0
   47.7454   31.5500   34.1849 H   0  0  0  0  0  0  0  0  0  0  0  0
   46.8241   33.0240   34.4959 H   0  0  0  0  0  0  0  0  0  0  0  0
   47.1700   32.3524   39.1445 H   0  0  0  0  0  0  0  0  0  0  0  0
   46.5281   34.0422   36.8035 H   0  0  0  0  0  0  0  0  0  0  0  0
   43.8372   31.6042   34.6428 H   0  0  0  0  0  0  0  0  0  0  0  0
   45.0740   32.2666   33.5210 H   0  0  0  0  0  0  0  0  0  0  0  0
   44.7118   30.5072   33.5210 H   0  0  0  0  0  0  0  0  0  0  0  0
   46.2753   29.4659   36.3791 H   0  0  0  0  0  0  0  0  0  0  0  0
   45.4350   29.1210   34.8293 H   0  0  0  0  0  0  0  0  0  0  0  0
   47.1799   29.5476   34.8293 H   0  0  0  0  0  0  0  0  0  0  0  0
  1  5  1  0
  2  1  1  0
  3  2  1  0
  3  1  1  0
  4  9  1  0
  5  6  2  0
  5  4  1  0
  8  9  1  0
  8  7  1  0
  9  7  1  0
 10 11  2  0
 11  7  1  0
 11 12  1  0
 13 12  2  0
 14 13  1  0
 15 10  1  0
 15 14  2  0
 16  3  1  0
 17 16  2  0
 18 27  1  0
 18 25  1  0
 19 18  1  0
 19 20  1  0
 20 24  1  0
 20 21  1  0
 21 22  2  0
 21 23  1  0
 23 16  1  0
 24 25  1  0
 24 23  1  0
 26 18  1  0
  1 28  1  6
  2 29  1  0
  2 30  1  0
  3 31  1  1
  4 32  1  0
  7 33  1  1
  8 34  1  0
  8 35  1  0
  9 36  1  1
 10 37  1  0
 12 38  1  0
 14 39  1  0
 19 40  1  0
 19 41  1  0
 23 42  1  1
 24 43  1  6
 26 44  1  0
 26 45  1  0
 26 46  1  0
 27 47  1  0
 27 48  1  0
 27 49  1  0
M  ISO  8  28  13  29  13  30  13  31  13  33  13  34  13  35  13  36  13
M  ISO  8  37  14  38  14  39  14  40  13  41  13  42  13  43  13  44   8
M  ISO  5  45   8  46   8  47   8  48   8  49   8
M  END
>  <minimizedAffinity>  (1) 
-5.34666538

>  <minimizedRMSD>  (1) 
0.853966057

$$$$
