
     RDKit          3D

 32 34  0  0  0  0  0  0  0  0999 V2000
   46.4430   33.5750   41.2870 C   0  0  0  0  0  0  0  0  0  0  0  0
   46.8090   34.6010   42.1250 C   0  0  0  0  0  0  0  0  0  0  0  0
   47.8610   35.3710   41.7210 C   0  0  0  0  0  0  0  0  0  0  0  0
   48.5340   35.1490   40.5380 C   0  0  0  0  0  0  0  0  0  0  0  0
   48.1530   34.1190   39.7150 C   0  0  0  0  0  0  0  0  0  0  0  0
   47.0780   33.2970   40.0840 C   0  0  0  0  0  0  0  0  0  0  0  0
   44.4930   35.9840   44.7540 C   0  0  0  0  0  0  0  0  0  0  0  0
   45.1980   35.8470   43.5400 C   0  0  0  0  0  0  0  0  0  0  0  0
   46.0650   34.7840   43.3490 C   0  0  0  0  0  0  0  0  0  0  0  0
   46.1770   33.9140   44.3880 N   0  0  0  0  0  0  0  0  0  0  0  0
   45.5020   34.0520   45.5430 C   0  0  0  0  0  0  0  0  0  0  0  0
   44.6600   35.0810   45.7300 N   0  0  0  0  0  0  0  0  0  0  0  0
   45.3760   32.7510   41.6380 O   0  0  0  0  0  0  0  0  0  0  0  0
   46.6570   32.2530   39.2940 O   0  0  0  0  0  0  0  0  0  0  0  0
   44.1920   33.1870   38.0790 Cl  0  0  0  0  0  0  0  0  0  0  0  0
   45.6560   32.5850   37.2850 C   0  0  0  0  0  0  0  0  0  0  0  0
   46.8170   32.1480   37.9250 C   0  0  0  0  0  0  0  0  0  0  0  0
   47.8630   31.7110   37.1430 C   0  0  0  0  0  0  0  0  0  0  0  0
   47.7390   31.7170   35.7710 C   0  0  0  0  0  0  0  0  0  0  0  0
   46.6080   32.1410   35.1270 C   0  0  0  0  0  0  0  0  0  0  0  0
   45.5550   32.5810   35.8910 C   0  0  0  0  0  0  0  0  0  0  0  0
   48.1850   36.2020   42.3648 H   0  0  0  0  0  0  0  0  0  0  0  0
   49.3760   35.7974   40.2541 H   0  0  0  0  0  0  0  0  0  0  0  0
   48.6879   33.9390   38.7708 H   0  0  0  0  0  0  0  0  0  0  0  0
   43.8067   36.8313   44.8995 H   0  0  0  0  0  0  0  0  0  0  0  0
   45.0583   36.5890   42.7400 H   0  0  0  0  0  0  0  0  0  0  0  0
   45.6415   33.3122   46.3450 H   0  0  0  0  0  0  0  0  0  0  0  0
   45.1056   32.0096   41.0402 H   0  0  0  0  0  0  0  0  0  0  0  0
   48.7936   31.3586   37.6119 H   0  0  0  0  0  0  0  0  0  0  0  0
   48.5873   31.3651   35.1656 H   0  0  0  0  0  0  0  0  0  0  0  0
   46.5443   32.1296   34.0289 H   0  0  0  0  0  0  0  0  0  0  0  0
   44.6318   32.9304   35.4056 H   0  0  0  0  0  0  0  0  0  0  0  0
  1 13  1  0
  1  2  2  0
  2  9  1  0
  3  2  1  0
  4  3  2  0
  5  6  2  0
  5  4  1  0
  6  1  1  0
  7 12  2  0
  8  7  1  0
  9  8  2  0
  9 10  1  0
 10 11  2  0
 11 12  1  0
 14  6  1  0
 16 17  2  0
 16 15  1  0
 17 14  1  0
 18 17  1  0
 19 18  2  0
 20 19  1  0
 20 21  2  0
 21 16  1  0
  3 22  1  0
  4 23  1  0
  5 24  1  0
  7 25  1  0
  8 26  1  0
 11 27  1  0
 13 28  1  0
 18 29  1  0
 19 30  1  0
 20 31  1  0
 21 32  1  0
M  ISO  8  22  14  23  14  24  14  25  14  26  14  27  14  28   3  29  14
M  ISO  3  30  14  31  14  32  14
M  END
>  <minimizedAffinity>  (1) 
-5.42382765

>  <minimizedRMSD>  (1) 
2.29819679

$$$$
