
     RDKit          3D

 25 26  0  0  0  0  0  0  0  0999 V2000
   46.3180   34.0170   41.0060 C   0  0  0  0  0  0  0  0  0  0  0  0
   46.8350   34.7800   42.0170 C   0  0  0  0  0  0  0  0  0  0  0  0
   48.0330   35.3980   41.7770 C   0  0  0  0  0  0  0  0  0  0  0  0
   48.6980   35.2640   40.5760 C   0  0  0  0  0  0  0  0  0  0  0  0
   48.1670   34.4980   39.5770 C   0  0  0  0  0  0  0  0  0  0  0  0
   46.9440   33.8450   39.7690 C   0  0  0  0  0  0  0  0  0  0  0  0
   44.5330   35.9990   44.7340 C   0  0  0  0  0  0  0  0  0  0  0  0
   45.2400   35.9300   43.5230 C   0  0  0  0  0  0  0  0  0  0  0  0
   46.0970   34.8810   43.2460 C   0  0  0  0  0  0  0  0  0  0  0  0
   46.1890   33.9440   44.2330 N   0  0  0  0  0  0  0  0  0  0  0  0
   45.5140   34.0090   45.3920 C   0  0  0  0  0  0  0  0  0  0  0  0
   44.6880   35.0260   45.6500 N   0  0  0  0  0  0  0  0  0  0  0  0
   45.0900   33.3620   41.2000 O   0  0  0  0  0  0  0  0  0  0  0  0
   46.3400   33.0530   38.8110 O   0  0  0  0  0  0  0  0  0  0  0  0
   46.8910   31.8700   38.2710 C   0  0  0  0  0  0  0  0  0  0  0  0
   47.7820   32.1340   37.2370 F   0  0  0  0  0  0  0  0  0  0  0  0
   47.6210   31.2550   39.2730 F   0  0  0  0  0  0  0  0  0  0  0  0
   45.9350   31.0220   37.7370 F   0  0  0  0  0  0  0  0  0  0  0  0
   48.4790   36.0207   42.5665 H   0  0  0  0  0  0  0  0  0  0  0  0
   49.6594   35.7758   40.4219 H   0  0  0  0  0  0  0  0  0  0  0  0
   48.7011   34.3944   38.6210 H   0  0  0  0  0  0  0  0  0  0  0  0
   43.8566   36.8434   44.9326 H   0  0  0  0  0  0  0  0  0  0  0  0
   45.1092   36.7285   42.7778 H   0  0  0  0  0  0  0  0  0  0  0  0
   45.6434   33.2128   46.1399 H   0  0  0  0  0  0  0  0  0  0  0  0
   44.7053   32.8069   40.4761 H   0  0  0  0  0  0  0  0  0  0  0  0
  1 13  1  0
  1  2  2  0
  2  9  1  0
  3  2  1  0
  4  3  2  0
  5  6  2  0
  5  4  1  0
  6  1  1  0
  7 12  2  0
  8  7  1  0
  9  8  2  0
  9 10  1  0
 10 11  2  0
 11 12  1  0
 14  6  1  0
 15 14  1  0
 15 17  1  0
 16 15  1  0
 18 15  1  0
  3 19  1  0
  4 20  1  0
  5 21  1  0
  7 22  1  0
  8 23  1  0
 11 24  1  0
 13 25  1  0
M  ISO  7  19  14  20  14  21  14  22  14  23  14  24  14  25   3
M  END
>  <minimizedAffinity>  (1) 
-5.01732349

>  <minimizedRMSD>  (1) 
0.45709458

$$$$
