
     RDKit          3D

 42 45  0  0  1  0  0  0  0  0999 V2000
   48.0630   33.2500   43.2130 N   0  0  0  0  0  0  0  0  0  0  0  0
   49.2270   33.2950   42.4490 C   0  0  0  0  0  0  0  0  0  0  0  0
   50.3860   32.8750   42.6970 O   0  0  0  0  0  0  0  0  0  0  0  0
   46.2940   32.1100   44.5040 C   0  0  1  0  0  0  0  0  0  0  0  0
   46.4510   31.3650   43.3300 C   0  0  0  0  0  0  0  0  0  0  0  0
   47.6710   32.1050   43.9590 C   0  0  1  0  0  0  0  0  0  0  0  0
   45.0600   33.9800   43.1760 C   0  0  0  0  0  0  0  0  0  0  0  0
   45.5460   33.4470   44.4160 C   0  0  0  0  0  0  0  0  0  0  0  0
   45.3390   34.2000   45.5550 C   0  0  0  0  0  0  0  0  0  0  0  0
   44.6990   35.3850   45.4500 N   0  0  0  0  0  0  0  0  0  0  0  0
   44.2460   35.8760   44.2680 C   0  0  0  0  0  0  0  0  0  0  0  0
   44.4380   35.1410   43.0960 N   0  0  0  0  0  0  0  0  0  0  0  0
   49.1840   33.9310   41.0730 C   0  0  2  0  0  0  0  0  0  0  0  0
   48.6690   35.4200   41.0120 C   0  0  0  0  0  0  0  0  0  0  0  0
   47.9140   34.2720   40.4260 C   0  0  1  0  0  0  0  0  0  0  0  0
   47.8440   34.1860   38.9200 C   0  0  0  0  0  0  0  0  0  0  0  0
   48.5990   34.8470   38.2240 O   0  0  0  0  0  0  0  0  0  0  0  0
   46.8940   33.3270   38.2970 N   0  0  0  0  0  0  0  0  0  0  0  0
   46.9450   32.6090   37.0230 C   0  0  0  0  0  0  0  0  0  0  0  0
   45.5590   32.7700   36.4440 C   0  0  0  0  0  0  0  0  0  0  0  0
   44.6610   33.0930   37.6220 C   0  0  0  0  0  0  0  0  0  0  0  0
   45.5980   32.9460   38.8000 C   0  0  0  0  0  0  0  0  0  0  0  0
   47.4591   34.0840   43.2386 H   0  0  0  0  0  0  0  0  0  0  0  0
   45.8646   31.8503   45.4829 H   0  0  0  0  0  0  0  0  0  0  0  0
   46.0149   31.7255   42.3867 H   0  0  0  0  0  0  0  0  0  0  0  0
   46.2383   30.3280   43.0310 H   0  0  0  0  0  0  0  0  0  0  0  0
   48.6726   31.8720   44.3495 H   0  0  0  0  0  0  0  0  0  0  0  0
   45.2119   33.3977   42.2552 H   0  0  0  0  0  0  0  0  0  0  0  0
   45.6901   33.8401   46.5334 H   0  0  0  0  0  0  0  0  0  0  0  0
   43.7307   36.8472   44.2336 H   0  0  0  0  0  0  0  0  0  0  0  0
   50.0654   33.3577   40.7498 H   0  0  0  0  0  0  0  0  0  0  0  0
   48.3047   35.9224   41.9202 H   0  0  0  0  0  0  0  0  0  0  0  0
   49.0598   36.3825   40.6503 H   0  0  0  0  0  0  0  0  0  0  0  0
   46.8863   33.9008   40.5528 H   0  0  0  0  0  0  0  0  0  0  0  0
   47.6991   33.0526   36.3563 H   0  0  0  0  0  0  0  0  0  0  0  0
   47.2265   31.5530   37.1483 H   0  0  0  0  0  0  0  0  0  0  0  0
   45.5416   33.5904   35.7115 H   0  0  0  0  0  0  0  0  0  0  0  0
   45.2295   31.8622   35.9175 H   0  0  0  0  0  0  0  0  0  0  0  0
   44.2680   34.1180   37.5526 H   0  0  0  0  0  0  0  0  0  0  0  0
   43.7729   32.4470   37.6856 H   0  0  0  0  0  0  0  0  0  0  0  0
   45.6120   31.9050   39.1550 H   0  0  0  0  0  0  0  0  0  0  0  0
   45.2880   33.5663   39.6539 H   0  0  0  0  0  0  0  0  0  0  0  0
  1  6  1  0
  2  3  2  0
  2  1  1  0
  5  6  1  0
  5  4  1  0
  6  4  1  0
  7  8  2  0
  8  4  1  0
  8  9  1  0
 10  9  2  0
 11 10  1  0
 12  7  1  0
 12 11  2  0
 13  2  1  0
 14 13  1  0
 15 14  1  0
 15 13  1  0
 16 15  1  0
 17 16  2  0
 18 22  1  0
 18 16  1  0
 19 18  1  0
 20 19  1  0
 20 21  1  0
 21 22  1  0
  1 23  1  0
  4 24  1  1
  5 25  1  0
  5 26  1  0
  6 27  1  1
  7 28  1  0
  9 29  1  0
 11 30  1  0
 13 31  1  6
 14 32  1  0
 14 33  1  0
 15 34  1  1
 19 35  1  0
 19 36  1  0
 20 37  1  0
 20 38  1  0
 21 39  1  0
 21 40  1  0
 22 41  1  0
 22 42  1  0
M  ISO  8  24  13  25  13  26  13  27  13  28  14  29  14  30  14  31  13
M  ISO  8  32  13  33  13  34  13  35  13  36  13  37  13  38  13  39  13
M  ISO  3  40  13  41  13  42  13
M  END
>  <minimizedAffinity>  (1) 
-5.09206486

>  <minimizedRMSD>  (1) 
0.152766615

$$$$
