
     RDKit          3D

 49 54  0  0  1  0  0  0  0  0999 V2000
   46.7010   31.7950   38.1120 C   0  0  0  0  0  0  0  0  0  0  0  0
   45.9370   32.6480   37.3400 C   0  0  0  0  0  0  0  0  0  0  0  0
   45.7120   32.3000   36.0580 C   0  0  0  0  0  0  0  0  0  0  0  0
   46.2640   31.0830   35.5610 C   0  0  0  0  0  0  0  0  0  0  0  0
   47.1370   30.4390   37.0240 S   0  0  0  0  0  0  0  0  0  0  0  0
   47.0840   31.8840   39.4090 O   0  0  0  0  0  0  0  0  0  0  0  0
   46.6840   33.3760   41.2400 C   0  0  0  0  0  0  0  0  0  0  0  0
   46.9260   34.5390   41.9570 C   0  0  0  0  0  0  0  0  0  0  0  0
   47.8780   35.3880   41.4780 C   0  0  0  0  0  0  0  0  0  0  0  0
   48.5860   35.1120   40.3220 C   0  0  0  0  0  0  0  0  0  0  0  0
   48.3360   33.9540   39.6210 C   0  0  0  0  0  0  0  0  0  0  0  0
   47.3670   33.0570   40.0780 C   0  0  0  0  0  0  0  0  0  0  0  0
   44.5570   36.0080   44.4940 C   0  0  0  0  0  0  0  0  0  0  0  0
   45.2890   35.8230   43.3140 C   0  0  0  0  0  0  0  0  0  0  0  0
   46.1520   34.7680   43.1550 C   0  0  0  0  0  0  0  0  0  0  0  0
   46.2180   33.9440   44.2360 N   0  0  0  0  0  0  0  0  0  0  0  0
   45.5280   34.1010   45.3730 C   0  0  0  0  0  0  0  0  0  0  0  0
   44.6930   35.1410   45.5000 N   0  0  0  0  0  0  0  0  0  0  0  0
   45.7230   32.4820   41.6880 O   0  0  0  0  0  0  0  0  0  0  0  0
   46.1860   30.4700   34.2600 C   0  0  0  0  0  0  0  0  0  0  0  0
   47.1940   31.0840   33.4010 C   0  0  0  0  0  0  0  0  0  0  0  0
   47.4520   30.4920   32.2610 C   0  0  0  0  0  0  0  0  0  0  0  0
   48.4140   30.9940   31.3430 N   0  0  0  0  0  0  0  0  0  0  0  0
   48.8760   31.2260   30.0150 C   0  0  1  0  0  0  0  0  0  0  0  0
   48.8020   30.6030   28.9320 O   0  0  0  0  0  0  0  0  0  0  0  0
   49.4570   32.5020   30.5220 C   0  0  0  0  0  0  0  0  0  0  0  0
   49.6310   31.6480   31.7620 C   0  0  2  0  0  0  0  0  0  0  0  0
   49.5330   32.4710   33.3280 S   0  0  0  0  0  0  0  0  0  0  0  0
   47.8220   32.3090   33.8830 C   0  0  0  0  0  0  0  0  0  0  0  0
   46.7870   29.2510   31.8030 C   0  0  0  0  0  0  0  0  0  0  0  0
   47.3600   28.1620   31.5380 O   0  0  0  0  0  0  0  0  0  0  0  0
   45.7560   28.4170   31.4260 O   0  0  0  0  0  0  0  0  0  0  0  0
   45.5264   33.5793   37.7573 H   0  0  0  0  0  0  0  0  0  0  0  0
   45.1099   32.9468   35.4029 H   0  0  0  0  0  0  0  0  0  0  0  0
   48.0894   36.3184   42.0255 H   0  0  0  0  0  0  0  0  0  0  0  0
   49.3491   35.8182   39.9628 H   0  0  0  0  0  0  0  0  0  0  0  0
   48.8987   33.7349   38.7016 H   0  0  0  0  0  0  0  0  0  0  0  0
   43.8731   36.8640   44.5912 H   0  0  0  0  0  0  0  0  0  0  0  0
   45.1686   36.5437   42.4918 H   0  0  0  0  0  0  0  0  0  0  0  0
   45.6460   33.3814   46.1966 H   0  0  0  0  0  0  0  0  0  0  0  0
   45.5457   31.6505   41.1808 H   0  0  0  0  0  0  0  0  0  0  0  0
   46.3785   29.3904   34.3457 H   0  0  0  0  0  0  0  0  0  0  0  0
   45.1835   30.6174   33.8319 H   0  0  0  0  0  0  0  0  0  0  0  0
   48.6872   29.6367   29.1143 H   0  0  0  0  0  0  0  0  0  0  0  0
   50.3830   32.8394   30.0335 H   0  0  0  0  0  0  0  0  0  0  0  0
   48.9578   33.4817   30.4921 H   0  0  0  0  0  0  0  0  0  0  0  0
   47.2472   33.1702   33.5116 H   0  0  0  0  0  0  0  0  0  0  0  0
   47.8284   32.2721   34.9824 H   0  0  0  0  0  0  0  0  0  0  0  0
   45.9468   27.4819   31.1629 H   0  0  0  0  0  0  0  0  0  0  0  0
  1  6  1  0
  2  1  2  0
  3  2  1  0
  4  3  2  0
  4  5  1  0
  5  1  1  0
  6 12  1  0
  7 19  1  0
  7  8  2  0
  8 15  1  0
  9  8  1  0
 10  9  2  0
 11 12  2  0
 11 10  1  0
 12  7  1  0
 13 18  2  0
 14 13  1  0
 15 14  2  0
 15 16  1  0
 16 17  2  0
 17 18  1  0
 20  4  1  0
 21 29  1  0
 21 20  1  0
 22 21  2  0
 23 27  1  0
 23 22  1  0
 24 25  1  6
 24 26  1  0
 24 23  1  0
 24 27  1  0
 27 26  1  0
 27 28  1  1
 28 29  1  0
 30 22  1  0
 31 30  2  0
 32 30  1  0
  2 33  1  0
  3 34  1  0
  9 35  1  0
 10 36  1  0
 11 37  1  0
 13 38  1  0
 14 39  1  0
 17 40  1  0
 19 41  1  0
 20 42  1  0
 20 43  1  0
 25 44  1  0
 26 45  1  0
 26 46  1  0
 29 47  1  0
 29 48  1  0
 32 49  1  0
M  ISO  8  33  14  34  14  35  14  36  14  37  14  38  14  39  14  40  14
M  ISO  8  41   3  42   8  43   8  44   3  45  13  46  13  47  13  48  13
M  ISO  1  49   3
M  END
>  <minimizedAffinity>  (1) 
-6.85637569

>  <minimizedRMSD>  (1) 
2.72325826

$$$$
