
     RDKit          3D

 42 45  0  0  1  0  0  0  0  0999 V2000
   46.3380   33.5980   41.1970 C   0  0  0  0  0  0  0  0  0  0  0  0
   46.7660   34.6050   42.0480 C   0  0  0  0  0  0  0  0  0  0  0  0
   47.8320   35.3400   41.6620 C   0  0  0  0  0  0  0  0  0  0  0  0
   48.4900   35.1100   40.4580 C   0  0  0  0  0  0  0  0  0  0  0  0
   48.0640   34.1130   39.6190 C   0  0  0  0  0  0  0  0  0  0  0  0
   46.9680   33.3330   39.9810 C   0  0  0  0  0  0  0  0  0  0  0  0
   44.5140   35.9930   44.7320 C   0  0  0  0  0  0  0  0  0  0  0  0
   45.1960   35.8450   43.5210 C   0  0  0  0  0  0  0  0  0  0  0  0
   46.0420   34.7950   43.2860 C   0  0  0  0  0  0  0  0  0  0  0  0
   46.1500   33.9240   44.3310 N   0  0  0  0  0  0  0  0  0  0  0  0
   45.5100   34.0410   45.4990 C   0  0  0  0  0  0  0  0  0  0  0  0
   44.6860   35.0860   45.7000 N   0  0  0  0  0  0  0  0  0  0  0  0
   45.2450   32.8130   41.5500 O   0  0  0  0  0  0  0  0  0  0  0  0
   46.4870   32.3170   39.1900 O   0  0  0  0  0  0  0  0  0  0  0  0
   46.6740   32.2040   37.8610 C   0  0  0  0  0  0  0  0  0  0  0  0
   45.8780   32.6020   36.8080 C   0  0  0  0  0  0  0  0  0  0  0  0
   46.2850   32.3770   35.5290 C   0  0  0  0  0  0  0  0  0  0  0  0
   47.5410   31.7250   35.3720 C   0  0  0  0  0  0  0  0  0  0  0  0
   48.1050   31.4550   37.0800 S   0  0  0  0  0  0  0  0  0  0  0  0
   49.4330   32.2690   34.0020 C   0  0  2  0  0  0  0  0  0  0  0  0
   48.3380   31.2980   34.2400 C   0  0  2  0  0  0  0  0  0  0  0  0
   47.5080   31.3070   33.1210 O   0  0  0  0  0  0  0  0  0  0  0  0
   48.3100   31.6450   32.0390 C   0  0  0  0  0  0  0  0  0  0  0  0
   49.1670   32.7490   32.5790 C   0  0  1  0  0  0  0  0  0  0  0  0
   50.6940   31.6590   33.9520 O   0  0  0  0  0  0  0  0  0  0  0  0
   48.3950   33.9080   32.5900 O   0  0  0  0  0  0  0  0  0  0  0  0
   48.1907   36.1452   42.3201 H   0  0  0  0  0  0  0  0  0  0  0  0
   49.3546   35.7299   40.1784 H   0  0  0  0  0  0  0  0  0  0  0  0
   48.5838   33.9303   38.6669 H   0  0  0  0  0  0  0  0  0  0  0  0
   43.8409   36.8489   44.8879 H   0  0  0  0  0  0  0  0  0  0  0  0
   45.0481   36.5965   42.7314 H   0  0  0  0  0  0  0  0  0  0  0  0
   45.6557   33.2895   46.2890 H   0  0  0  0  0  0  0  0  0  0  0  0
   44.9366   32.0929   40.9446 H   0  0  0  0  0  0  0  0  0  0  0  0
   44.9164   33.1001   37.0011 H   0  0  0  0  0  0  0  0  0  0  0  0
   45.6772   32.6820   34.6643 H   0  0  0  0  0  0  0  0  0  0  0  0
   49.4460   33.0305   34.7957 H   0  0  0  0  0  0  0  0  0  0  0  0
   48.7627   30.3013   34.4301 H   0  0  0  0  0  0  0  0  0  0  0  0
   47.7022   31.9959   31.1920 H   0  0  0  0  0  0  0  0  0  0  0  0
   48.8932   30.7961   31.6528 H   0  0  0  0  0  0  0  0  0  0  0  0
   50.0885   32.9613   32.0171 H   0  0  0  0  0  0  0  0  0  0  0  0
   51.0208   31.5009   34.8730 H   0  0  0  0  0  0  0  0  0  0  0  0
   48.2162   34.1765   33.5260 H   0  0  0  0  0  0  0  0  0  0  0  0
  1 13  1  0
  1  2  2  0
  2  9  1  0
  3  2  1  0
  4  3  2  0
  5  6  2  0
  5  4  1  0
  6  1  1  0
  7 12  2  0
  8  7  1  0
  9  8  2  0
  9 10  1  0
 10 11  2  0
 11 12  1  0
 14  6  1  0
 15 14  1  0
 16 15  2  0
 17 16  1  0
 18 17  2  0
 18 19  1  0
 19 15  1  0
 20 25  1  0
 20 21  1  0
 21 18  1  0
 22 21  1  0
 23 24  1  0
 23 22  1  0
 24 26  1  0
 24 20  1  0
  3 27  1  0
  4 28  1  0
  5 29  1  0
  7 30  1  0
  8 31  1  0
 11 32  1  0
 13 33  1  0
 16 34  1  0
 17 35  1  0
 20 36  1  1
 21 37  1  1
 23 38  1  0
 23 39  1  0
 24 40  1  6
 25 41  1  0
 26 42  1  0
M  ISO  8  27  14  28  14  29  14  30  14  31  14  32  14  33   3  34  14
M  ISO  8  35  14  36  13  37  13  38  13  39  13  40  13  41   3  42   3
M  END
>  <minimizedAffinity>  (1) 
-6.81884575

>  <minimizedRMSD>  (1) 
0.788205564

$$$$
