
     RDKit          3D

 39 42  0  0  0  0  0  0  0  0999 V2000
   46.4260   33.6130   41.1810 C   0  0  0  0  0  0  0  0  0  0  0  0
   46.8170   34.6160   42.0500 C   0  0  0  0  0  0  0  0  0  0  0  0
   47.8660   35.3730   41.6720 C   0  0  0  0  0  0  0  0  0  0  0  0
   48.5430   35.1790   40.4720 C   0  0  0  0  0  0  0  0  0  0  0  0
   48.1380   34.1740   39.6200 C   0  0  0  0  0  0  0  0  0  0  0  0
   47.0530   33.3630   39.9720 C   0  0  0  0  0  0  0  0  0  0  0  0
   44.5140   35.9450   44.7100 C   0  0  0  0  0  0  0  0  0  0  0  0
   45.2140   35.8050   43.5140 C   0  0  0  0  0  0  0  0  0  0  0  0
   46.0850   34.7770   43.2760 C   0  0  0  0  0  0  0  0  0  0  0  0
   46.2060   33.9020   44.3140 N   0  0  0  0  0  0  0  0  0  0  0  0
   45.5410   34.0140   45.4780 C   0  0  0  0  0  0  0  0  0  0  0  0
   44.6980   35.0300   45.6790 N   0  0  0  0  0  0  0  0  0  0  0  0
   45.3480   32.7930   41.5100 O   0  0  0  0  0  0  0  0  0  0  0  0
   46.5980   32.3390   39.1630 O   0  0  0  0  0  0  0  0  0  0  0  0
   46.6220   32.3440   37.8090 C   0  0  0  0  0  0  0  0  0  0  0  0
   45.6370   32.6880   36.9050 C   0  0  0  0  0  0  0  0  0  0  0  0
   45.9100   32.6090   35.5840 C   0  0  0  0  0  0  0  0  0  0  0  0
   47.2080   32.1720   35.2010 C   0  0  0  0  0  0  0  0  0  0  0  0
   48.0230   31.8790   36.7890 S   0  0  0  0  0  0  0  0  0  0  0  0
   46.6110   29.8970   33.7120 F   0  0  0  0  0  0  0  0  0  0  0  0
   47.4640   30.8380   33.2330 C   0  0  0  0  0  0  0  0  0  0  0  0
   47.8030   31.9830   33.9140 C   0  0  0  0  0  0  0  0  0  0  0  0
   48.6490   32.9480   33.4760 C   0  0  0  0  0  0  0  0  0  0  0  0
   49.2350   32.7710   32.2190 C   0  0  0  0  0  0  0  0  0  0  0  0
   48.9270   31.6250   31.4810 C   0  0  0  0  0  0  0  0  0  0  0  0
   48.0470   30.6600   31.9790 C   0  0  0  0  0  0  0  0  0  0  0  0
   48.2015   36.1791   42.3411 H   0  0  0  0  0  0  0  0  0  0  0  0
   49.3945   35.8224   40.2054 H   0  0  0  0  0  0  0  0  0  0  0  0
   48.6648   34.0102   38.6683 H   0  0  0  0  0  0  0  0  0  0  0  0
   43.8235   36.7881   44.8595 H   0  0  0  0  0  0  0  0  0  0  0  0
   45.0595   36.5553   42.7246 H   0  0  0  0  0  0  0  0  0  0  0  0
   45.6925   33.2644   46.2687 H   0  0  0  0  0  0  0  0  0  0  0  0
   45.0656   32.0743   40.8905 H   0  0  0  0  0  0  0  0  0  0  0  0
   44.6481   33.0203   37.2537 H   0  0  0  0  0  0  0  0  0  0  0  0
   45.1538   32.8738   34.8303 H   0  0  0  0  0  0  0  0  0  0  0  0
   48.8661   33.8367   34.0868 H   0  0  0  0  0  0  0  0  0  0  0  0
   49.9290   33.5235   31.8165 H   0  0  0  0  0  0  0  0  0  0  0  0
   49.3849   31.4799   30.4914 H   0  0  0  0  0  0  0  0  0  0  0  0
   47.8154   29.7641   31.3843 H   0  0  0  0  0  0  0  0  0  0  0  0
  1 13  1  0
  1  2  2  0
  2  9  1  0
  3  2  1  0
  4  3  2  0
  5  6  2  0
  5  4  1  0
  6  1  1  0
  7 12  2  0
  8  7  1  0
  9  8  2  0
  9 10  1  0
 10 11  2  0
 11 12  1  0
 14  6  1  0
 15 14  1  0
 16 15  2  0
 17 16  1  0
 18 17  2  0
 18 19  1  0
 19 15  1  0
 21 20  1  0
 21 22  2  0
 22 18  1  0
 23 22  1  0
 24 23  2  0
 25 26  2  0
 25 24  1  0
 26 21  1  0
  3 27  1  0
  4 28  1  0
  5 29  1  0
  7 30  1  0
  8 31  1  0
 11 32  1  0
 13 33  1  0
 16 34  1  0
 17 35  1  0
 23 36  1  0
 24 37  1  0
 25 38  1  0
 26 39  1  0
M  ISO  8  27  14  28  14  29  14  30  14  31  14  32  14  33   3  34  14
M  ISO  5  35  14  36  14  37  14  38  14  39  14
M  END
>  <minimizedAffinity>  (1) 
-6.49579096

>  <minimizedRMSD>  (1) 
0.800261736

$$$$
