
     RDKit          3D

 36 39  0  0  0  0  0  0  0  0999 V2000
   46.4810   33.6030   41.2930 C   0  0  0  0  0  0  0  0  0  0  0  0
   46.8270   34.6160   42.1520 C   0  0  0  0  0  0  0  0  0  0  0  0
   47.8730   35.4130   41.7770 C   0  0  0  0  0  0  0  0  0  0  0  0
   48.5580   35.2200   40.5920 C   0  0  0  0  0  0  0  0  0  0  0  0
   48.2020   34.2070   39.7440 C   0  0  0  0  0  0  0  0  0  0  0  0
   47.1450   33.3720   40.0850 C   0  0  0  0  0  0  0  0  0  0  0  0
   44.4860   35.9420   44.7900 C   0  0  0  0  0  0  0  0  0  0  0  0
   45.1930   35.8210   43.5850 C   0  0  0  0  0  0  0  0  0  0  0  0
   46.0810   34.7750   43.3760 C   0  0  0  0  0  0  0  0  0  0  0  0
   46.2040   33.8990   44.4090 N   0  0  0  0  0  0  0  0  0  0  0  0
   45.5270   34.0130   45.5650 C   0  0  0  0  0  0  0  0  0  0  0  0
   44.6660   35.0420   45.7490 N   0  0  0  0  0  0  0  0  0  0  0  0
   45.4270   32.7660   41.6270 O   0  0  0  0  0  0  0  0  0  0  0  0
   46.7260   32.3300   39.2880 O   0  0  0  0  0  0  0  0  0  0  0  0
   46.6500   32.3510   37.9450 C   0  0  0  0  0  0  0  0  0  0  0  0
   45.5810   32.6910   37.1410 C   0  0  0  0  0  0  0  0  0  0  0  0
   45.7280   32.6380   35.7870 C   0  0  0  0  0  0  0  0  0  0  0  0
   46.9970   32.2280   35.2980 C   0  0  0  0  0  0  0  0  0  0  0  0
   47.9600   31.9260   36.7980 S   0  0  0  0  0  0  0  0  0  0  0  0
   47.5330   32.0500   33.9460 C   0  0  0  0  0  0  0  0  0  0  0  0
   47.2220   30.9610   33.1710 C   0  0  0  0  0  0  0  0  0  0  0  0
   47.9190   31.1950   32.0210 N   0  0  0  0  0  0  0  0  0  0  0  0
   48.6310   32.3590   32.0590 C   0  0  0  0  0  0  0  0  0  0  0  0
   48.3600   32.8740   33.2980 N   0  0  0  0  0  0  0  0  0  0  0  0
   48.1795   36.2351   42.4405 H   0  0  0  0  0  0  0  0  0  0  0  0
   49.3942   35.8847   40.3292 H   0  0  0  0  0  0  0  0  0  0  0  0
   48.7475   34.0550   38.8010 H   0  0  0  0  0  0  0  0  0  0  0  0
   43.7865   36.7777   44.9396 H   0  0  0  0  0  0  0  0  0  0  0  0
   45.0412   36.5679   42.7918 H   0  0  0  0  0  0  0  0  0  0  0  0
   45.6727   33.2694   46.3624 H   0  0  0  0  0  0  0  0  0  0  0  0
   45.1661   32.0311   41.0172 H   0  0  0  0  0  0  0  0  0  0  0  0
   44.6240   33.0003   37.5866 H   0  0  0  0  0  0  0  0  0  0  0  0
   44.9044   32.8999   35.1064 H   0  0  0  0  0  0  0  0  0  0  0  0
   46.5710   30.1089   33.4163 H   0  0  0  0  0  0  0  0  0  0  0  0
   47.9088   30.5602   31.2100 H   0  0  0  0  0  0  0  0  0  0  0  0
   49.2742   32.7849   31.2748 H   0  0  0  0  0  0  0  0  0  0  0  0
  1 13  1  0
  1  2  2  0
  2  9  1  0
  3  2  1  0
  4  3  2  0
  5  6  2  0
  5  4  1  0
  6  1  1  0
  7 12  2  0
  8  7  1  0
  9  8  2  0
  9 10  1  0
 10 11  2  0
 11 12  1  0
 14  6  1  0
 15 14  1  0
 16 15  2  0
 17 16  1  0
 18 17  2  0
 18 19  1  0
 19 15  1  0
 20 18  1  0
 21 20  2  0
 22 23  1  0
 22 21  1  0
 23 24  2  0
 24 20  1  0
  3 25  1  0
  4 26  1  0
  5 27  1  0
  7 28  1  0
  8 29  1  0
 11 30  1  0
 13 31  1  0
 16 32  1  0
 17 33  1  0
 21 34  1  0
 22 35  1  0
 23 36  1  0
M  ISO  8  25  14  26  14  27  14  28  14  29  14  30  14  31   3  32  14
M  ISO  4  33  14  34  14  35   9  36  14
M  END
>  <minimizedAffinity>  (1) 
-6.21457911

>  <minimizedRMSD>  (1) 
0.490342498

$$$$
