
     RDKit          3D

 36 39  0  0  0  0  0  0  0  0999 V2000
   46.4210   33.6230   41.1230 C   0  0  0  0  0  0  0  0  0  0  0  0
   46.8190   34.6250   41.9800 C   0  0  0  0  0  0  0  0  0  0  0  0
   47.8930   35.3700   41.6000 C   0  0  0  0  0  0  0  0  0  0  0  0
   48.5680   35.1450   40.4090 C   0  0  0  0  0  0  0  0  0  0  0  0
   48.1560   34.1420   39.5680 C   0  0  0  0  0  0  0  0  0  0  0  0
   47.0590   33.3520   39.9170 C   0  0  0  0  0  0  0  0  0  0  0  0
   44.5330   36.0420   44.6220 C   0  0  0  0  0  0  0  0  0  0  0  0
   45.2370   35.8850   43.4230 C   0  0  0  0  0  0  0  0  0  0  0  0
   46.0800   34.8150   43.2050 C   0  0  0  0  0  0  0  0  0  0  0  0
   46.1670   33.9340   44.2430 N   0  0  0  0  0  0  0  0  0  0  0  0
   45.4930   34.0810   45.3940 C   0  0  0  0  0  0  0  0  0  0  0  0
   44.6720   35.1400   45.5840 N   0  0  0  0  0  0  0  0  0  0  0  0
   45.3240   32.8280   41.4620 O   0  0  0  0  0  0  0  0  0  0  0  0
   46.5930   32.3340   39.1240 O   0  0  0  0  0  0  0  0  0  0  0  0
   46.5570   32.3350   37.7760 C   0  0  0  0  0  0  0  0  0  0  0  0
   45.5360   32.7270   36.9360 C   0  0  0  0  0  0  0  0  0  0  0  0
   45.7090   32.6460   35.6020 C   0  0  0  0  0  0  0  0  0  0  0  0
   46.9550   32.1530   35.1360 C   0  0  0  0  0  0  0  0  0  0  0  0
   47.8630   31.8120   36.6680 S   0  0  0  0  0  0  0  0  0  0  0  0
   47.5450   31.9070   33.8230 C   0  0  0  0  0  0  0  0  0  0  0  0
   48.2430   32.7720   33.0960 C   0  0  0  0  0  0  0  0  0  0  0  0
   48.7250   32.3710   31.8840 C   0  0  0  0  0  0  0  0  0  0  0  0
   48.4470   31.0640   31.4860 C   0  0  0  0  0  0  0  0  0  0  0  0
   47.4570   30.4410   32.9480 S   0  0  0  0  0  0  0  0  0  0  0  0
   48.2379   36.1791   42.2606 H   0  0  0  0  0  0  0  0  0  0  0  0
   49.4322   35.7697   40.1392 H   0  0  0  0  0  0  0  0  0  0  0  0
   48.6881   33.9611   38.6224 H   0  0  0  0  0  0  0  0  0  0  0  0
   43.8692   36.9073   44.7655 H   0  0  0  0  0  0  0  0  0  0  0  0
   45.1145   36.6376   42.6302 H   0  0  0  0  0  0  0  0  0  0  0  0
   45.6091   33.3326   46.1918 H   0  0  0  0  0  0  0  0  0  0  0  0
   45.0296   32.1050   40.8531 H   0  0  0  0  0  0  0  0  0  0  0  0
   44.5890   33.1024   37.3511 H   0  0  0  0  0  0  0  0  0  0  0  0
   44.9161   32.9499   34.9027 H   0  0  0  0  0  0  0  0  0  0  0  0
   48.4290   33.7919   33.4638 H   0  0  0  0  0  0  0  0  0  0  0  0
   49.3092   33.0513   31.2469 H   0  0  0  0  0  0  0  0  0  0  0  0
   48.7324   30.5400   30.5619 H   0  0  0  0  0  0  0  0  0  0  0  0
  1 13  1  0
  1  2  2  0
  2  9  1  0
  3  2  1  0
  4  3  2  0
  5  6  2  0
  5  4  1  0
  6  1  1  0
  7 12  2  0
  8  7  1  0
  9  8  2  0
  9 10  1  0
 10 11  2  0
 11 12  1  0
 14  6  1  0
 15 14  1  0
 16 15  2  0
 17 16  1  0
 18 17  2  0
 18 19  1  0
 19 15  1  0
 20 18  1  0
 21 20  2  0
 22 21  1  0
 23 22  2  0
 23 24  1  0
 24 20  1  0
  3 25  1  0
  4 26  1  0
  5 27  1  0
  7 28  1  0
  8 29  1  0
 11 30  1  0
 13 31  1  0
 16 32  1  0
 17 33  1  0
 21 34  1  0
 22 35  1  0
 23 36  1  0
M  ISO  8  25  14  26  14  27  14  28  14  29  14  30  14  31   3  32  14
M  ISO  4  33  14  34  14  35  14  36  14
M  END
>  <minimizedAffinity>  (1) 
-6.16556168

>  <minimizedRMSD>  (1) 
0.424128979

$$$$
