
     RDKit          3D

 36 39  0  0  0  0  0  0  0  0999 V2000
   46.4610   33.6390   41.2820 C   0  0  0  0  0  0  0  0  0  0  0  0
   46.8160   34.6390   42.1610 C   0  0  0  0  0  0  0  0  0  0  0  0
   47.8760   35.4260   41.7940 C   0  0  0  0  0  0  0  0  0  0  0  0
   48.5600   35.2330   40.6050 C   0  0  0  0  0  0  0  0  0  0  0  0
   48.1830   34.2280   39.7500 C   0  0  0  0  0  0  0  0  0  0  0  0
   47.1060   33.3980   40.0820 C   0  0  0  0  0  0  0  0  0  0  0  0
   44.4840   35.9350   44.8150 C   0  0  0  0  0  0  0  0  0  0  0  0
   45.1880   35.8220   43.6120 C   0  0  0  0  0  0  0  0  0  0  0  0
   46.0700   34.7960   43.3820 C   0  0  0  0  0  0  0  0  0  0  0  0
   46.1990   33.9090   44.4110 N   0  0  0  0  0  0  0  0  0  0  0  0
   45.5270   34.0060   45.5730 C   0  0  0  0  0  0  0  0  0  0  0  0
   44.6700   35.0200   45.7720 N   0  0  0  0  0  0  0  0  0  0  0  0
   45.3950   32.8150   41.6080 O   0  0  0  0  0  0  0  0  0  0  0  0
   46.6950   32.3820   39.2600 O   0  0  0  0  0  0  0  0  0  0  0  0
   46.8830   32.3210   37.9270 C   0  0  0  0  0  0  0  0  0  0  0  0
   46.0420   32.6190   36.8740 C   0  0  0  0  0  0  0  0  0  0  0  0
   46.4840   32.4680   35.6010 C   0  0  0  0  0  0  0  0  0  0  0  0
   47.8140   32.0020   35.4340 C   0  0  0  0  0  0  0  0  0  0  0  0
   48.4050   31.7890   37.1410 S   0  0  0  0  0  0  0  0  0  0  0  0
   48.5760   31.7380   34.2320 C   0  0  0  0  0  0  0  0  0  0  0  0
   47.9800   32.0950   32.9500 C   0  0  0  0  0  0  0  0  0  0  0  0
   49.1540   32.9160   33.4390 C   0  0  0  0  0  0  0  0  0  0  0  0
   48.1941   36.2373   42.4653 H   0  0  0  0  0  0  0  0  0  0  0  0
   49.4064   35.8861   40.3459 H   0  0  0  0  0  0  0  0  0  0  0  0
   48.7261   34.0750   38.8057 H   0  0  0  0  0  0  0  0  0  0  0  0
   43.7839   36.7687   44.9724 H   0  0  0  0  0  0  0  0  0  0  0  0
   45.0303   36.5770   42.8277 H   0  0  0  0  0  0  0  0  0  0  0  0
   45.6801   33.2535   46.3606 H   0  0  0  0  0  0  0  0  0  0  0  0
   45.1229   32.0902   40.9910 H   0  0  0  0  0  0  0  0  0  0  0  0
   45.0197   32.9767   37.0662 H   0  0  0  0  0  0  0  0  0  0  0  0
   45.8415   32.6961   34.7378 H   0  0  0  0  0  0  0  0  0  0  0  0
   49.0037   30.8220   34.6657 H   0  0  0  0  0  0  0  0  0  0  0  0
   46.9760   32.5436   32.9228 H   0  0  0  0  0  0  0  0  0  0  0  0
   47.7665   31.5405   32.0243 H   0  0  0  0  0  0  0  0  0  0  0  0
   50.1359   32.8311   32.9504 H   0  0  0  0  0  0  0  0  0  0  0  0
   49.3534   33.9806   33.6307 H   0  0  0  0  0  0  0  0  0  0  0  0
  1 13  1  0
  1  2  2  0
  2  9  1  0
  3  2  1  0
  4  3  2  0
  5  6  2  0
  5  4  1  0
  6  1  1  0
  7 12  2  0
  8  7  1  0
  9  8  2  0
  9 10  1  0
 10 11  2  0
 11 12  1  0
 14  6  1  0
 15 14  1  0
 16 15  2  0
 17 16  1  0
 18 17  2  0
 18 19  1  0
 19 15  1  0
 20 18  1  0
 21 22  1  0
 21 20  1  0
 22 20  1  0
  3 23  1  0
  4 24  1  0
  5 25  1  0
  7 26  1  0
  8 27  1  0
 11 28  1  0
 13 29  1  0
 16 30  1  0
 17 31  1  0
 20 32  1  0
 21 33  1  0
 21 34  1  0
 22 35  1  0
 22 36  1  0
M  ISO  8  23  14  24  14  25  14  26  14  27  14  28  14  29   3  30  14
M  ISO  6  31  14  32  13  33  13  34  13  35  13  36  13
M  END
>  <minimizedAffinity>  (1) 
-5.49791288

>  <minimizedRMSD>  (1) 
0.933519006

$$$$
