
     RDKit          3D

 32 34  0  0  0  0  0  0  0  0999 V2000
   46.4900   33.5700   41.3530 C   0  0  0  0  0  0  0  0  0  0  0  0
   46.8320   34.6190   42.1980 C   0  0  0  0  0  0  0  0  0  0  0  0
   47.8570   35.4140   41.8130 C   0  0  0  0  0  0  0  0  0  0  0  0
   48.5470   35.2040   40.6280 C   0  0  0  0  0  0  0  0  0  0  0  0
   48.2030   34.1690   39.8050 C   0  0  0  0  0  0  0  0  0  0  0  0
   47.1450   33.3130   40.1570 C   0  0  0  0  0  0  0  0  0  0  0  0
   44.4750   35.9390   44.8160 C   0  0  0  0  0  0  0  0  0  0  0  0
   45.1930   35.8080   43.6270 C   0  0  0  0  0  0  0  0  0  0  0  0
   46.0800   34.7820   43.4090 C   0  0  0  0  0  0  0  0  0  0  0  0
   46.1810   33.9250   44.4580 N   0  0  0  0  0  0  0  0  0  0  0  0
   45.5060   34.0260   45.6100 C   0  0  0  0  0  0  0  0  0  0  0  0
   44.6500   35.0410   45.7840 N   0  0  0  0  0  0  0  0  0  0  0  0
   45.4420   32.7160   41.6970 O   0  0  0  0  0  0  0  0  0  0  0  0
   46.7650   32.2640   39.3640 O   0  0  0  0  0  0  0  0  0  0  0  0
   46.5770   32.3060   38.0310 C   0  0  0  0  0  0  0  0  0  0  0  0
   45.5120   32.7640   37.2880 C   0  0  0  0  0  0  0  0  0  0  0  0
   45.5770   32.6910   35.9400 C   0  0  0  0  0  0  0  0  0  0  0  0
   46.7500   32.1400   35.3620 C   0  0  0  0  0  0  0  0  0  0  0  0
   47.7670   31.7280   36.8220 S   0  0  0  0  0  0  0  0  0  0  0  0
   47.1010   31.9340   33.9770 C   0  0  0  0  0  0  0  0  0  0  0  0
   48.1524   36.2532   42.4600 H   0  0  0  0  0  0  0  0  0  0  0  0
   49.3744   35.8734   40.3498 H   0  0  0  0  0  0  0  0  0  0  0  0
   48.7539   34.0056   38.8670 H   0  0  0  0  0  0  0  0  0  0  0  0
   43.7724   36.7743   44.9525 H   0  0  0  0  0  0  0  0  0  0  0  0
   45.0431   36.5550   42.8336 H   0  0  0  0  0  0  0  0  0  0  0  0
   45.6533   33.2817   46.4065 H   0  0  0  0  0  0  0  0  0  0  0  0
   45.1959   31.9678   41.0972 H   0  0  0  0  0  0  0  0  0  0  0  0
   44.6233   33.1822   37.7832 H   0  0  0  0  0  0  0  0  0  0  0  0
   44.7476   33.0471   35.3114 H   0  0  0  0  0  0  0  0  0  0  0  0
   48.0483   31.3780   33.9176 H   0  0  0  0  0  0  0  0  0  0  0  0
   46.3065   31.3589   33.4790 H   0  0  0  0  0  0  0  0  0  0  0  0
   47.2157   32.9081   33.4790 H   0  0  0  0  0  0  0  0  0  0  0  0
  1 13  1  0
  1  2  2  0
  2  9  1  0
  3  2  1  0
  4  3  2  0
  5  6  2  0
  5  4  1  0
  6  1  1  0
  7 12  2  0
  8  7  1  0
  9  8  2  0
  9 10  1  0
 10 11  2  0
 11 12  1  0
 14  6  1  0
 15 14  1  0
 16 15  2  0
 17 16  1  0
 18 17  2  0
 18 19  1  0
 19 15  1  0
 20 18  1  0
  3 21  1  0
  4 22  1  0
  5 23  1  0
  7 24  1  0
  8 25  1  0
 11 26  1  0
 13 27  1  0
 16 28  1  0
 17 29  1  0
 20 30  1  0
 20 31  1  0
 20 32  1  0
M  ISO  8  21  14  22  14  23  14  24  14  25  14  26  14  27   3  28  14
M  ISO  4  29  14  30   8  31   8  32   8
M  END
>  <minimizedAffinity>  (1) 
-5.32715702

>  <minimizedRMSD>  (1) 
0.0179653186

$$$$
