
     RDKit          3D

 27 28  0  0  0  0  0  0  0  0999 V2000
   44.8390   34.8770   45.6480 C   0  0  0  0  0  0  0  0  0  0  0  0
   45.4030   34.8990   44.3660 C   0  0  0  0  0  0  0  0  0  0  0  0
   46.2580   33.8460   44.0070 C   0  0  0  0  0  0  0  0  0  0  0  0
   46.4930   32.8680   44.9140 N   0  0  0  0  0  0  0  0  0  0  0  0
   45.9280   32.8880   46.1380 C   0  0  0  0  0  0  0  0  0  0  0  0
   45.1100   33.8730   46.5130 N   0  0  0  0  0  0  0  0  0  0  0  0
   46.2070   31.8420   47.0450 N   0  0  0  0  0  0  0  0  0  0  0  0
   47.4980   31.2880   47.3150 C   0  0  0  0  0  0  0  0  0  0  0  0
   47.8610   31.3290   48.7810 C   0  0  0  0  0  0  0  0  0  0  0  0
   46.7690   30.8810   49.6220 N   0  0  0  0  0  0  0  0  0  0  0  0
   45.4950   31.4430   49.2810 C   0  0  0  0  0  0  0  0  0  0  0  0
   45.1630   31.2060   47.8190 C   0  0  0  0  0  0  0  0  0  0  0  0
   45.0530   36.0410   43.4780 C   0  0  0  0  0  0  0  0  0  0  0  0
   44.9020   37.1390   44.3230 F   0  0  0  0  0  0  0  0  0  0  0  0
   43.8850   35.7700   42.8390 F   0  0  0  0  0  0  0  0  0  0  0  0
   46.1030   36.2300   42.5880 F   0  0  0  0  0  0  0  0  0  0  0  0
   44.1647   35.6895   45.9564 H   0  0  0  0  0  0  0  0  0  0  0  0
   46.7265   33.8155   43.0122 H   0  0  0  0  0  0  0  0  0  0  0  0
   47.5071   30.2402   46.9804 H   0  0  0  0  0  0  0  0  0  0  0  0
   48.2378   31.8970   46.7748 H   0  0  0  0  0  0  0  0  0  0  0  0
   48.7305   30.6769   48.9502 H   0  0  0  0  0  0  0  0  0  0  0  0
   48.0891   32.3719   49.0462 H   0  0  0  0  0  0  0  0  0  0  0  0
   46.7011   29.8562   49.5443 H   0  0  0  0  0  0  0  0  0  0  0  0
   44.7186   30.9766   49.9052 H   0  0  0  0  0  0  0  0  0  0  0  0
   45.5350   32.5281   49.4572 H   0  0  0  0  0  0  0  0  0  0  0  0
   44.1868   31.6505   47.5754 H   0  0  0  0  0  0  0  0  0  0  0  0
   45.1062   30.1302   47.5964 H   0  0  0  0  0  0  0  0  0  0  0  0
  1  6  2  0
  2  1  1  0
  3  2  2  0
  3  4  1  0
  4  5  2  0
  5  6  1  0
  5  7  1  0
  7  8  1  0
  7 12  1  0
  8  9  1  0
  9 10  1  0
 11 10  1  0
 12 11  1  0
 13 14  1  0
 13  2  1  0
 15 13  1  0
 16 13  1  0
  1 17  1  0
  3 18  1  0
  8 19  1  0
  8 20  1  0
  9 21  1  0
  9 22  1  0
 10 23  1  0
 11 24  1  0
 11 25  1  0
 12 26  1  0
 12 27  1  0
M  ISO  8  17  14  18  14  19  13  20  13  21  13  22  13  23   5  24  13
M  ISO  3  25  13  26  13  27  13
M  END
>  <minimizedAffinity>  (1) 
-5.62901831

>  <minimizedRMSD>  (1) 
1.21324921

$$$$
