
     RDKit          3D

 21 22  0  0  0  0  0  0  0  0999 V2000
   44.7020   35.1490   45.1210 C   0  0  0  0  0  0  0  0  0  0  0  0
   45.3830   34.9550   43.9110 C   0  0  0  0  0  0  0  0  0  0  0  0
   46.3360   33.9460   43.8580 C   0  0  0  0  0  0  0  0  0  0  0  0
   46.5650   33.2000   44.9750 N   0  0  0  0  0  0  0  0  0  0  0  0
   45.8900   33.4180   46.1220 C   0  0  0  0  0  0  0  0  0  0  0  0
   44.9670   34.3790   46.2030 N   0  0  0  0  0  0  0  0  0  0  0  0
   46.1860   32.5790   47.2780 C   0  0  0  0  0  0  0  0  0  0  0  0
   45.1610   32.2050   48.1350 C   0  0  0  0  0  0  0  0  0  0  0  0
   45.5420   31.4130   49.1980 C   0  0  0  0  0  0  0  0  0  0  0  0
   46.8120   31.0220   49.4060 N   0  0  0  0  0  0  0  0  0  0  0  0
   47.7850   31.3960   48.5680 C   0  0  0  0  0  0  0  0  0  0  0  0
   47.4470   32.1720   47.5150 N   0  0  0  0  0  0  0  0  0  0  0  0
   45.0120   35.8570   42.7890 C   0  0  0  0  0  0  0  0  0  0  0  0
   45.2810   37.1500   43.2330 F   0  0  0  0  0  0  0  0  0  0  0  0
   43.6950   35.7040   42.4990 F   0  0  0  0  0  0  0  0  0  0  0  0
   45.8170   35.5070   41.6990 F   0  0  0  0  0  0  0  0  0  0  0  0
   43.9402   35.9393   45.1926 H   0  0  0  0  0  0  0  0  0  0  0  0
   46.8958   33.7526   42.9310 H   0  0  0  0  0  0  0  0  0  0  0  0
   44.1182   32.5180   47.9778 H   0  0  0  0  0  0  0  0  0  0  0  0
   44.7701   31.0854   49.9099 H   0  0  0  0  0  0  0  0  0  0  0  0
   48.8266   31.0820   48.7309 H   0  0  0  0  0  0  0  0  0  0  0  0
  1  6  2  0
  2  1  1  0
  3  2  2  0
  3  4  1  0
  4  5  2  0
  5  6  1  0
  5  7  1  0
  7 12  1  0
  7  8  2  0
  8  9  1  0
  9 10  2  0
 11 10  1  0
 12 11  2  0
 13 14  1  0
 13  2  1  0
 15 13  1  0
 16 13  1  0
  1 17  1  0
  3 18  1  0
  8 19  1  0
  9 20  1  0
 11 21  1  0
M  ISO  5  17  14  18  14  19  14  20  14  21  14
M  END
>  <minimizedAffinity>  (1) 
-5.25563765

>  <minimizedRMSD>  (1) 
0.852650821

$$$$
