
     RDKit          3D

 28 30  0  0  0  0  0  0  0  0999 V2000
   44.9430   34.6650   45.5740 C   0  0  0  0  0  0  0  0  0  0  0  0
   45.3320   34.9050   44.2500 C   0  0  0  0  0  0  0  0  0  0  0  0
   46.3970   34.1540   43.7320 C   0  0  0  0  0  0  0  0  0  0  0  0
   46.9950   33.2340   44.5440 N   0  0  0  0  0  0  0  0  0  0  0  0
   46.5840   33.0390   45.8130 C   0  0  0  0  0  0  0  0  0  0  0  0
   45.5740   33.7390   46.3290 N   0  0  0  0  0  0  0  0  0  0  0  0
   47.2580   32.0420   46.6370 C   0  0  0  0  0  0  0  0  0  0  0  0
   47.5520   32.2950   47.9550 C   0  0  0  0  0  0  0  0  0  0  0  0
   48.1820   31.4270   48.8120 C   0  0  0  0  0  0  0  0  0  0  0  0
   48.5450   30.1960   48.2860 C   0  0  0  0  0  0  0  0  0  0  0  0
   49.1670   29.3390   49.1300 N   0  0  0  0  0  0  0  0  0  0  0  0
   49.5640   28.1190   48.7290 C   0  0  0  0  0  0  0  0  0  0  0  0
   49.3080   27.7800   47.4150 C   0  0  0  0  0  0  0  0  0  0  0  0
   48.6730   28.6540   46.5490 C   0  0  0  0  0  0  0  0  0  0  0  0
   48.2630   29.9130   46.9600 C   0  0  0  0  0  0  0  0  0  0  0  0
   47.6300   30.8120   46.1380 C   0  0  0  0  0  0  0  0  0  0  0  0
   44.5700   35.9490   43.5040 C   0  0  0  0  0  0  0  0  0  0  0  0
   45.0150   37.1700   43.9810 F   0  0  0  0  0  0  0  0  0  0  0  0
   43.2410   35.7840   43.7560 F   0  0  0  0  0  0  0  0  0  0  0  0
   44.8630   35.7820   42.1470 F   0  0  0  0  0  0  0  0  0  0  0  0
   44.1104   35.2396   46.0061 H   0  0  0  0  0  0  0  0  0  0  0  0
   46.7416   34.3025   42.6980 H   0  0  0  0  0  0  0  0  0  0  0  0
   47.2579   33.2756   48.3575 H   0  0  0  0  0  0  0  0  0  0  0  0
   48.3878   31.6934   49.8592 H   0  0  0  0  0  0  0  0  0  0  0  0
   50.0691   27.4233   49.4153 H   0  0  0  0  0  0  0  0  0  0  0  0
   49.6164   26.7904   47.0470 H   0  0  0  0  0  0  0  0  0  0  0  0
   48.4895   28.3420   45.5103 H   0  0  0  0  0  0  0  0  0  0  0  0
   47.4213   30.5529   45.0895 H   0  0  0  0  0  0  0  0  0  0  0  0
  1  6  2  0
  2  1  1  0
  3  2  2  0
  3  4  1  0
  4  5  2  0
  5  6  1  0
  5  7  1  0
  7  8  2  0
  8  9  1  0
 10  9  2  0
 10 11  1  0
 12 11  2  0
 13 12  1  0
 14 15  1  0
 14 13  2  0
 15 10  1  0
 16  7  1  0
 16 15  2  0
 17 19  1  0
 17 18  1  0
 17  2  1  0
 20 17  1  0
  1 21  1  0
  3 22  1  0
  8 23  1  0
  9 24  1  0
 12 25  1  0
 13 26  1  0
 14 27  1  0
 16 28  1  0
M  ISO  8  21  14  22  14  23  14  24  14  25  14  26  14  27  14  28  14
M  END
>  <minimizedAffinity>  (1) 
-5.15544319

>  <minimizedRMSD>  (1) 
2.78410387

$$$$
