
     RDKit          3D

 16 16  0  0  0  0  0  0  0  0999 V2000
   45.0370   34.9930   44.8410 C   0  0  0  0  0  0  0  0  0  0  0  0
   45.9470   34.7260   43.8080 C   0  0  0  0  0  0  0  0  0  0  0  0
   46.8260   33.6710   43.9920 C   0  0  0  0  0  0  0  0  0  0  0  0
   46.7750   32.9470   45.1420 N   0  0  0  0  0  0  0  0  0  0  0  0
   45.8800   33.2440   46.1080 C   0  0  0  0  0  0  0  0  0  0  0  0
   45.0030   34.2640   45.9710 N   0  0  0  0  0  0  0  0  0  0  0  0
   45.8740   35.6130   42.6130 C   0  0  0  0  0  0  0  0  0  0  0  0
   45.3870   36.8240   43.0400 F   0  0  0  0  0  0  0  0  0  0  0  0
   45.0300   35.0470   41.6990 F   0  0  0  0  0  0  0  0  0  0  0  0
   47.1770   35.7020   42.0900 F   0  0  0  0  0  0  0  0  0  0  0  0
   45.8350   32.4420   47.3640 C   0  0  0  0  0  0  0  0  0  0  0  0
   44.6840   32.6960   48.0750 F   0  0  0  0  0  0  0  0  0  0  0  0
   45.8190   31.0670   47.0880 F   0  0  0  0  0  0  0  0  0  0  0  0
   46.9510   32.6720   48.1370 F   0  0  0  0  0  0  0  0  0  0  0  0
   44.3279   35.8257   44.7234 H   0  0  0  0  0  0  0  0  0  0  0  0
   47.5607   33.4205   43.2126 H   0  0  0  0  0  0  0  0  0  0  0  0
  1  6  2  0
  2  3  2  0
  2  1  1  0
  3  4  1  0
  4  5  2  0
  5 11  1  0
  6  5  1  0
  7  8  1  0
  7  2  1  0
  9  7  1  0
 10  7  1  0
 11 12  1  0
 11 14  1  0
 13 11  1  0
  1 15  1  0
  3 16  1  0
M  ISO  2  15  14  16  14
M  END
>  <minimizedAffinity>  (1) 
-4.61034346

>  <minimizedRMSD>  (1) 
0.211167663

$$$$
