
     RDKit          3D

 38 41  0  0  1  0  0  0  0  0999 V2000
   48.0590   33.2130   43.2310 N   0  0  0  0  0  0  0  0  0  0  0  0
   49.2210   33.2390   42.4620 C   0  0  0  0  0  0  0  0  0  0  0  0
   50.3650   32.7700   42.6890 O   0  0  0  0  0  0  0  0  0  0  0  0
   46.2490   32.0780   44.4700 C   0  0  1  0  0  0  0  0  0  0  0  0
   46.4150   31.3550   43.2830 C   0  0  0  0  0  0  0  0  0  0  0  0
   47.6350   32.0610   43.9460 C   0  0  1  0  0  0  0  0  0  0  0  0
   45.0400   33.9740   43.1590 C   0  0  0  0  0  0  0  0  0  0  0  0
   45.5270   33.4310   44.3950 C   0  0  0  0  0  0  0  0  0  0  0  0
   45.3420   34.1810   45.5390 C   0  0  0  0  0  0  0  0  0  0  0  0
   44.7180   35.3770   45.4370 N   0  0  0  0  0  0  0  0  0  0  0  0
   44.2660   35.8790   44.2710 C   0  0  0  0  0  0  0  0  0  0  0  0
   44.4360   35.1450   43.0880 N   0  0  0  0  0  0  0  0  0  0  0  0
   49.1930   33.9230   41.1070 C   0  0  2  0  0  0  0  0  0  0  0  0
   48.6880   35.4160   41.0910 C   0  0  0  0  0  0  0  0  0  0  0  0
   47.9300   34.2920   40.4620 C   0  0  1  0  0  0  0  0  0  0  0  0
   47.8880   34.2380   38.9490 C   0  0  0  0  0  0  0  0  0  0  0  0
   48.7010   34.8770   38.2940 O   0  0  0  0  0  0  0  0  0  0  0  0
   46.8720   33.4210   38.2840 C   0  0  0  0  0  0  0  0  0  0  0  0
   45.8840   32.8330   39.0010 C   0  0  0  0  0  0  0  0  0  0  0  0
   44.9620   32.0760   38.2960 C   0  0  0  0  0  0  0  0  0  0  0  0
   45.0540   31.9390   36.9620 N   0  0  0  0  0  0  0  0  0  0  0  0
   46.0410   32.5270   36.2450 C   0  0  0  0  0  0  0  0  0  0  0  0
   46.9250   33.2570   36.9480 N   0  0  0  0  0  0  0  0  0  0  0  0
   47.4831   34.0654   43.2832 H   0  0  0  0  0  0  0  0  0  0  0  0
   45.7983   31.8053   45.4356 H   0  0  0  0  0  0  0  0  0  0  0  0
   46.0006   31.7419   42.3403 H   0  0  0  0  0  0  0  0  0  0  0  0
   46.1912   30.3279   42.9591 H   0  0  0  0  0  0  0  0  0  0  0  0
   48.6261   31.8033   44.3476 H   0  0  0  0  0  0  0  0  0  0  0  0
   45.1754   33.3918   42.2356 H   0  0  0  0  0  0  0  0  0  0  0  0
   45.6948   33.8136   46.5139 H   0  0  0  0  0  0  0  0  0  0  0  0
   43.7666   36.8588   44.2471 H   0  0  0  0  0  0  0  0  0  0  0  0
   50.0743   33.3562   40.7721 H   0  0  0  0  0  0  0  0  0  0  0  0
   48.3200   35.8908   42.0125 H   0  0  0  0  0  0  0  0  0  0  0  0
   49.0874   36.3873   40.7638 H   0  0  0  0  0  0  0  0  0  0  0  0
   46.8955   33.9337   40.5684 H   0  0  0  0  0  0  0  0  0  0  0  0
   45.8169   32.9511   40.0926 H   0  0  0  0  0  0  0  0  0  0  0  0
   44.1424   31.5797   38.8362 H   0  0  0  0  0  0  0  0  0  0  0  0
   46.1152   32.4143   35.1533 H   0  0  0  0  0  0  0  0  0  0  0  0
  1  6  1  0
  2  3  2  0
  2  1  1  0
  5  6  1  0
  5  4  1  0
  6  4  1  0
  7  8  2  0
  8  4  1  0
  8  9  1  0
 10  9  2  0
 11 10  1  0
 12  7  1  0
 12 11  2  0
 13  2  1  0
 14 13  1  0
 15 14  1  0
 15 13  1  0
 16 15  1  0
 17 16  2  0
 18 16  1  0
 18 19  2  0
 20 19  1  0
 21 20  2  0
 22 23  2  0
 22 21  1  0
 23 18  1  0
  1 24  1  0
  4 25  1  1
  5 26  1  0
  5 27  1  0
  6 28  1  1
  7 29  1  0
  9 30  1  0
 11 31  1  0
 13 32  1  6
 14 33  1  0
 14 34  1  0
 15 35  1  1
 19 36  1  0
 20 37  1  0
 22 38  1  0
M  ISO  8  25  13  26  13  27  13  28  13  29  14  30  14  31  14  32  13
M  ISO  6  33  13  34  13  35  13  36  14  37  14  38  14
M  END
>  <minimizedAffinity>  (1) 
-4.87456894

>  <minimizedRMSD>  (1) 
0.602924347

$$$$
