
     RDKit          3D

 15 15  0  0  0  0  0  0  0  0999 V2000
   45.0600   34.8860   44.9590 C   0  0  0  0  0  0  0  0  0  0  0  0
   45.9400   34.6430   43.9040 C   0  0  0  0  0  0  0  0  0  0  0  0
   46.8620   33.6090   44.0490 C   0  0  0  0  0  0  0  0  0  0  0  0
   46.8660   32.8830   45.2060 N   0  0  0  0  0  0  0  0  0  0  0  0
   45.9950   33.1540   46.2000 C   0  0  0  0  0  0  0  0  0  0  0  0
   45.0880   34.1480   46.0950 N   0  0  0  0  0  0  0  0  0  0  0  0
   45.8140   35.5160   42.7130 C   0  0  0  0  0  0  0  0  0  0  0  0
   45.3010   36.7110   43.1510 F   0  0  0  0  0  0  0  0  0  0  0  0
   44.9540   34.9150   41.8210 F   0  0  0  0  0  0  0  0  0  0  0  0
   47.0750   35.6560   42.1490 F   0  0  0  0  0  0  0  0  0  0  0  0
   46.0440   32.3370   47.4280 C   0  0  0  0  0  0  0  0  0  0  0  0
   44.9510   32.2950   48.0870 O   0  0  0  0  0  0  0  0  0  0  0  0
   44.3240   35.6982   44.8661 H   0  0  0  0  0  0  0  0  0  0  0  0
   47.5760   33.3806   43.2440 H   0  0  0  0  0  0  0  0  0  0  0  0
   46.9515   31.8055   47.7506 H   0  0  0  0  0  0  0  0  0  0  0  0
  1  6  2  0
  2  3  2  0
  2  1  1  0
  3  4  1  0
  4  5  2  0
  5 11  1  0
  6  5  1  0
  7  8  1  0
  7  2  1  0
  9  7  1  0
 10  7  1  0
 11 12  2  0
  1 13  1  0
  3 14  1  0
 11 15  1  0
M  ISO  3  13  14  14  14  15   6
M  END
>  <minimizedAffinity>  (1) 
-3.98130178

>  <minimizedRMSD>  (1) 
0.278877079

$$$$
