
     RDKit          3D

 33 36  0  0  0  0  0  0  0  0999 V2000
   47.5720   30.9290   45.6720 C   0  0  0  0  0  0  0  0  0  0  0  0
   47.0820   32.1570   45.3030 C   0  0  0  0  0  0  0  0  0  0  0  0
   46.3390   32.8450   46.2240 C   0  0  0  0  0  0  0  0  0  0  0  0
   46.0580   32.3760   47.4860 C   0  0  0  0  0  0  0  0  0  0  0  0
   45.3860   32.7900   48.5810 N   0  0  0  0  0  0  0  0  0  0  0  0
   45.4760   31.8390   49.5590 C   0  0  0  0  0  0  0  0  0  0  0  0
   46.2210   30.8160   49.0550 N   0  0  0  0  0  0  0  0  0  0  0  0
   46.5750   31.1430   47.7950 C   0  0  0  0  0  0  0  0  0  0  0  0
   47.3330   30.3900   46.9230 C   0  0  0  0  0  0  0  0  0  0  0  0
   47.3140   34.4700   42.4730 C   0  0  0  0  0  0  0  0  0  0  0  0
   47.8660   33.6630   41.4680 C   0  0  0  0  0  0  0  0  0  0  0  0
   48.1470   32.3310   41.7970 C   0  0  0  0  0  0  0  0  0  0  0  0
   47.8770   31.8900   43.0450 N   0  0  0  0  0  0  0  0  0  0  0  0
   47.3430   32.7150   43.9780 C   0  0  0  0  0  0  0  0  0  0  0  0
   47.0610   33.9860   43.7080 N   0  0  0  0  0  0  0  0  0  0  0  0
   48.1010   34.3080   40.1450 C   0  0  0  0  0  0  0  0  0  0  0  0
   48.6030   35.5550   40.4140 F   0  0  0  0  0  0  0  0  0  0  0  0
   46.8970   34.3780   39.4850 F   0  0  0  0  0  0  0  0  0  0  0  0
   49.0010   33.4970   39.4520 F   0  0  0  0  0  0  0  0  0  0  0  0
   47.8720   29.0590   47.3010 C   0  0  0  0  0  0  0  0  0  0  0  0
   49.2230   28.6470   46.7470 C   0  0  0  0  0  0  0  0  0  0  0  0
   49.0460   28.9480   48.1920 C   0  0  0  0  0  0  0  0  0  0  0  0
   48.1732   30.3561   44.9506 H   0  0  0  0  0  0  0  0  0  0  0  0
   45.9435   33.8308   45.9380 H   0  0  0  0  0  0  0  0  0  0  0  0
   44.8829   33.6847   48.6665 H   0  0  0  0  0  0  0  0  0  0  0  0
   45.0307   31.8902   50.5635 H   0  0  0  0  0  0  0  0  0  0  0  0
   47.0816   35.5218   42.2502 H   0  0  0  0  0  0  0  0  0  0  0  0
   48.5821   31.6524   41.0485 H   0  0  0  0  0  0  0  0  0  0  0  0
   46.8564   28.6366   47.3140 H   0  0  0  0  0  0  0  0  0  0  0  0
   49.3920   27.6122   46.4144 H   0  0  0  0  0  0  0  0  0  0  0  0
   49.8852   29.0081   45.9463 H   0  0  0  0  0  0  0  0  0  0  0  0
   49.4948   29.8570   48.6190 H   0  0  0  0  0  0  0  0  0  0  0  0
   49.2555   28.4000   49.1225 H   0  0  0  0  0  0  0  0  0  0  0  0
  1  9  2  0
  2  1  1  0
  2  3  2  0
  3  4  1  0
  4  8  2  0
  4  5  1  0
  5  6  1  0
  7  6  2  0
  8  7  1  0
  9 20  1  0
  9  8  1  0
 10 15  2  0
 11 12  2  0
 11 10  1  0
 12 13  1  0
 13 14  2  0
 14  2  1  0
 15 14  1  0
 16 17  1  0
 16 11  1  0
 18 16  1  0
 19 16  1  0
 20 22  1  0
 21 20  1  0
 21 22  1  0
  1 23  1  0
  3 24  1  0
  5 25  1  0
  6 26  1  0
 10 27  1  0
 12 28  1  0
 20 29  1  0
 21 30  1  0
 21 31  1  0
 22 32  1  0
 22 33  1  0
M  ISO  8  23  14  24  14  25   9  26  14  27  14  28  14  29  13  30  13
M  ISO  3  31  13  32  13  33  13
M  END
>  <minimizedAffinity>  (1) 
-5.45170832

>  <minimizedRMSD>  (1) 
0.716152489

$$$$
