
     RDKit          3D

 45 48  0  0  1  0  0  0  0  0999 V2000
   47.7280   31.0320   45.9710 C   0  0  0  0  0  0  0  0  0  0  0  0
   46.9680   32.0580   45.4490 C   0  0  0  0  0  0  0  0  0  0  0  0
   45.9140   32.5290   46.2050 C   0  0  0  0  0  0  0  0  0  0  0  0
   45.6000   32.0170   47.4440 C   0  0  0  0  0  0  0  0  0  0  0  0
   44.6730   32.2410   48.4050 N   0  0  0  0  0  0  0  0  0  0  0  0
   44.8620   31.3980   49.4520 C   0  0  0  0  0  0  0  0  0  0  0  0
   45.9220   30.6410   49.1320 N   0  0  0  0  0  0  0  0  0  0  0  0
   46.3920   31.0000   47.9100 C   0  0  0  0  0  0  0  0  0  0  0  0
   47.4470   30.4890   47.2130 C   0  0  0  0  0  0  0  0  0  0  0  0
   47.2920   34.4060   42.6720 C   0  0  0  0  0  0  0  0  0  0  0  0
   47.8710   33.6340   41.6720 C   0  0  0  0  0  0  0  0  0  0  0  0
   48.1390   32.3030   41.9810 C   0  0  0  0  0  0  0  0  0  0  0  0
   47.8340   31.8240   43.2160 N   0  0  0  0  0  0  0  0  0  0  0  0
   47.2760   32.6170   44.1440 C   0  0  0  0  0  0  0  0  0  0  0  0
   47.0050   33.8920   43.8870 N   0  0  0  0  0  0  0  0  0  0  0  0
   48.1560   34.2770   40.3640 C   0  0  0  0  0  0  0  0  0  0  0  0
   48.7110   35.5050   40.6770 F   0  0  0  0  0  0  0  0  0  0  0  0
   46.9890   34.4400   39.6940 F   0  0  0  0  0  0  0  0  0  0  0  0
   49.0430   33.4510   39.6620 F   0  0  0  0  0  0  0  0  0  0  0  0
   48.2110   29.4530   47.7460 O   0  0  0  0  0  0  0  0  0  0  0  0
   49.8430   28.2550   49.3460 O   0  0  0  0  0  0  0  0  0  0  0  0
   49.4530   29.6530   48.8790 P   0  0  2  0  0  0  0  0  0  0  0  0
   48.7910   30.4610   50.2310 O   0  0  0  0  0  0  0  0  0  0  0  0
   50.7830   30.4790   48.3010 O   0  0  0  0  0  0  0  0  0  0  0  0
   50.9350   32.1870   49.8160 N   0  0  0  0  0  0  0  0  0  0  0  0
   51.5850   31.0110   49.3210 C   0  0  1  0  0  0  0  0  0  0  0  0
   51.6280   29.9630   50.4050 C   0  0  0  0  0  0  0  0  0  0  0  0
   52.3610   30.4270   51.5220 O   0  0  0  0  0  0  0  0  0  0  0  0
   51.5630   31.4190   52.0810 C   0  0  0  0  0  0  0  0  0  0  0  0
   51.2600   32.5550   51.1590 C   0  0  0  0  0  0  0  0  0  0  0  0
   48.5739   30.6376   45.3889 H   0  0  0  0  0  0  0  0  0  0  0  0
   45.2994   33.3471   45.8012 H   0  0  0  0  0  0  0  0  0  0  0  0
   43.9290   32.9512   48.3495 H   0  0  0  0  0  0  0  0  0  0  0  0
   44.2666   31.3462   50.3755 H   0  0  0  0  0  0  0  0  0  0  0  0
   47.0618   35.4622   42.4685 H   0  0  0  0  0  0  0  0  0  0  0  0
   48.5954   31.6423   41.2292 H   0  0  0  0  0  0  0  0  0  0  0  0
   49.1312   30.0457   51.0628 H   0  0  0  0  0  0  0  0  0  0  0  0
   49.9181   32.0308   49.7677 H   0  0  0  0  0  0  0  0  0  0  0  0
   52.5983   31.2679   48.9786 H   0  0  0  0  0  0  0  0  0  0  0  0
   50.6008   29.7274   50.7201 H   0  0  0  0  0  0  0  0  0  0  0  0
   52.1217   29.0640   50.0075 H   0  0  0  0  0  0  0  0  0  0  0  0
   50.6111   30.9624   52.3899 H   0  0  0  0  0  0  0  0  0  0  0  0
   52.1283   31.8401   52.9254 H   0  0  0  0  0  0  0  0  0  0  0  0
   52.1429   33.2103   51.1268 H   0  0  0  0  0  0  0  0  0  0  0  0
   50.3612   33.0423   51.5649 H   0  0  0  0  0  0  0  0  0  0  0  0
  1  9  2  0
  2  1  1  0
  2  3  2  0
  3  4  1  0
  4  8  2  0
  4  5  1  0
  5  6  1  0
  7  6  2  0
  8  7  1  0
  9 20  1  0
  9  8  1  0
 10 15  2  0
 11 12  2  0
 11 10  1  0
 12 13  1  0
 13 14  2  0
 14  2  1  0
 15 14  1  0
 16 17  1  0
 16 11  1  0
 18 16  1  0
 19 16  1  0
 20 22  1  0
 22 21  2  0
 22 23  1  0
 24 22  1  0
 25 30  1  0
 26 24  1  0
 26 25  1  0
 26 27  1  0
 27 28  1  0
 28 29  1  0
 30 29  1  0
  1 31  1  0
  3 32  1  0
  5 33  1  0
  6 34  1  0
 10 35  1  0
 12 36  1  0
 23 37  1  0
 25 38  1  0
 26 39  1  6
 27 40  1  0
 27 41  1  0
 29 42  1  0
 29 43  1  0
 30 44  1  0
 30 45  1  0
M  ISO  8  31  14  32  14  33   9  34  14  35  14  36  14  37   3  38   5
M  ISO  7  39  13  40  13  41  13  42  13  43  13  44  13  45  13
M  END
>  <minimizedAffinity>  (1) 
-6.24097252

>  <minimizedRMSD>  (1) 
0.209430143

$$$$
