
     RDKit          3D

 41 44  0  0  0  0  0  0  0  0999 V2000
   47.7070   30.9930   45.9780 C   0  0  0  0  0  0  0  0  0  0  0  0
   46.9670   32.0460   45.4620 C   0  0  0  0  0  0  0  0  0  0  0  0
   45.9290   32.5290   46.2270 C   0  0  0  0  0  0  0  0  0  0  0  0
   45.5990   32.0170   47.4650 C   0  0  0  0  0  0  0  0  0  0  0  0
   44.6780   32.2540   48.4270 N   0  0  0  0  0  0  0  0  0  0  0  0
   44.8510   31.3960   49.4630 C   0  0  0  0  0  0  0  0  0  0  0  0
   45.8940   30.6180   49.1350 N   0  0  0  0  0  0  0  0  0  0  0  0
   46.3690   30.9720   47.9250 C   0  0  0  0  0  0  0  0  0  0  0  0
   47.4110   30.4490   47.2160 C   0  0  0  0  0  0  0  0  0  0  0  0
   47.2890   34.3960   42.6810 C   0  0  0  0  0  0  0  0  0  0  0  0
   47.9110   33.6260   41.6910 C   0  0  0  0  0  0  0  0  0  0  0  0
   48.2040   32.3020   42.0160 C   0  0  0  0  0  0  0  0  0  0  0  0
   47.8870   31.8140   43.2470 N   0  0  0  0  0  0  0  0  0  0  0  0
   47.2870   32.6110   44.1610 C   0  0  0  0  0  0  0  0  0  0  0  0
   46.9880   33.8770   43.8970 N   0  0  0  0  0  0  0  0  0  0  0  0
   48.2040   34.2750   40.3900 C   0  0  0  0  0  0  0  0  0  0  0  0
   48.7610   35.4950   40.7100 F   0  0  0  0  0  0  0  0  0  0  0  0
   47.0210   34.4490   39.7210 F   0  0  0  0  0  0  0  0  0  0  0  0
   49.0700   33.4460   39.6860 F   0  0  0  0  0  0  0  0  0  0  0  0
   48.1410   29.3990   47.7420 O   0  0  0  0  0  0  0  0  0  0  0  0
   49.7640   28.1570   49.3490 O   0  0  0  0  0  0  0  0  0  0  0  0
   49.4130   29.5520   48.8410 P   0  0  2  0  0  0  0  0  0  0  0  0
   48.8120   30.4190   50.1790 O   0  0  0  0  0  0  0  0  0  0  0  0
   50.7800   30.2750   48.2250 O   0  0  0  0  0  0  0  0  0  0  0  0
   51.7420   29.5100   47.5760 C   0  0  0  0  0  0  0  0  0  0  0  0
   53.0100   29.1020   47.9550 C   0  0  0  0  0  0  0  0  0  0  0  0
   53.7470   28.3440   47.1050 C   0  0  0  0  0  0  0  0  0  0  0  0
   53.2840   27.9640   45.8800 C   0  0  0  0  0  0  0  0  0  0  0  0
   52.0160   28.3740   45.5070 C   0  0  0  0  0  0  0  0  0  0  0  0
   51.2830   29.1260   46.3480 N   0  0  0  0  0  0  0  0  0  0  0  0
   48.5437   30.5828   45.3935 H   0  0  0  0  0  0  0  0  0  0  0  0
   45.3331   33.3647   45.8314 H   0  0  0  0  0  0  0  0  0  0  0  0
   43.9502   32.9813   48.3795 H   0  0  0  0  0  0  0  0  0  0  0  0
   44.2558   31.3476   50.3868 H   0  0  0  0  0  0  0  0  0  0  0  0
   47.0388   35.4457   42.4676 H   0  0  0  0  0  0  0  0  0  0  0  0
   48.6922   31.6504   41.2763 H   0  0  0  0  0  0  0  0  0  0  0  0
   49.1132   29.9845   51.0160 H   0  0  0  0  0  0  0  0  0  0  0  0
   53.4157   29.3899   48.9361 H   0  0  0  0  0  0  0  0  0  0  0  0
   54.7531   28.0248   47.4147 H   0  0  0  0  0  0  0  0  0  0  0  0
   53.9006   27.3493   45.2077 H   0  0  0  0  0  0  0  0  0  0  0  0
   51.6089   28.0861   44.5265 H   0  0  0  0  0  0  0  0  0  0  0  0
  1  9  2  0
  2  1  1  0
  2  3  2  0
  3  4  1  0
  4  8  2  0
  4  5  1  0
  5  6  1  0
  7  6  2  0
  8  7  1  0
  9 20  1  0
  9  8  1  0
 10 15  2  0
 11 12  2  0
 11 10  1  0
 12 13  1  0
 13 14  2  0
 14  2  1  0
 15 14  1  0
 16 17  1  0
 16 11  1  0
 18 16  1  0
 19 16  1  0
 20 22  1  0
 22 21  2  0
 22 23  1  0
 24 22  1  0
 25 26  2  0
 25 24  1  0
 27 26  1  0
 28 27  2  0
 29 28  1  0
 29 30  2  0
 30 25  1  0
  1 31  1  0
  3 32  1  0
  5 33  1  0
  6 34  1  0
 10 35  1  0
 12 36  1  0
 23 37  1  0
 26 38  1  0
 27 39  1  0
 28 40  1  0
 29 41  1  0
M  ISO  8  31  14  32  14  33   9  34  14  35  14  36  14  37   3  38  14
M  ISO  3  39  14  40  14  41  14
M  END
>  <minimizedAffinity>  (1) 
-5.54154348

>  <minimizedRMSD>  (1) 
0.856894314

$$$$
