
     RDKit          3D

 31 33  0  0  1  0  0  0  0  0999 V2000
   46.1940   32.0710   44.6220 C   0  0  1  0  0  0  0  0  0  0  0  0
   46.3550   31.2920   43.4690 C   0  0  0  0  0  0  0  0  0  0  0  0
   47.5800   32.0140   44.1030 C   0  0  1  0  0  0  0  0  0  0  0  0
   45.0140   33.9240   43.2240 C   0  0  0  0  0  0  0  0  0  0  0  0
   45.4870   33.4250   44.4830 C   0  0  0  0  0  0  0  0  0  0  0  0
   45.3020   34.2230   45.5880 C   0  0  0  0  0  0  0  0  0  0  0  0
   44.6960   35.4230   45.4440 N   0  0  0  0  0  0  0  0  0  0  0  0
   44.2540   35.8810   44.2460 C   0  0  0  0  0  0  0  0  0  0  0  0
   44.4240   35.0970   43.1010 N   0  0  0  0  0  0  0  0  0  0  0  0
   48.0210   33.1250   43.3380 N   0  0  0  0  0  0  0  0  0  0  0  0
   49.1110   33.0690   42.4760 C   0  0  0  0  0  0  0  0  0  0  0  0
   50.2380   32.5230   42.6100 O   0  0  0  0  0  0  0  0  0  0  0  0
   49.0190   33.7470   41.1210 C   0  0  2  0  0  0  0  0  0  0  0  0
   48.6240   35.2690   41.1300 C   0  0  0  0  0  0  0  0  0  0  0  0
   47.7350   34.1960   40.5800 C   0  0  1  0  0  0  0  0  0  0  0  0
   47.5530   34.1610   39.0810 C   0  0  0  0  0  0  0  0  0  0  0  0
   48.4260   34.5890   38.3400 O   0  0  0  0  0  0  0  0  0  0  0  0
   46.4080   33.6510   38.4810 O   0  0  0  0  0  0  0  0  0  0  0  0
   45.7385   31.8485   45.5982 H   0  0  0  0  0  0  0  0  0  0  0  0
   45.9476   31.6399   42.5083 H   0  0  0  0  0  0  0  0  0  0  0  0
   46.1207   30.2537   43.1916 H   0  0  0  0  0  0  0  0  0  0  0  0
   48.5669   31.7640   44.5195 H   0  0  0  0  0  0  0  0  0  0  0  0
   45.1488   33.3037   42.3256 H   0  0  0  0  0  0  0  0  0  0  0  0
   45.6436   33.8883   46.5786 H   0  0  0  0  0  0  0  0  0  0  0  0
   43.7646   36.8636   44.1759 H   0  0  0  0  0  0  0  0  0  0  0  0
   47.5097   34.0148   43.4253 H   0  0  0  0  0  0  0  0  0  0  0  0
   49.8285   33.1193   40.7201 H   0  0  0  0  0  0  0  0  0  0  0  0
   48.3709   35.7747   42.0735 H   0  0  0  0  0  0  0  0  0  0  0  0
   49.0624   36.2070   40.7586 H   0  0  0  0  0  0  0  0  0  0  0  0
   46.6946   33.8982   40.7771 H   0  0  0  0  0  0  0  0  0  0  0  0
   46.3266   33.6457   37.4944 H   0  0  0  0  0  0  0  0  0  0  0  0
  2  3  1  0
  2  1  1  0
  3  1  1  0
  4  5  2  0
  5  1  1  0
  5  6  1  0
  7  6  2  0
  8  7  1  0
  9  4  1  0
  9  8  2  0
 10  3  1  0
 11 12  2  0
 11 10  1  0
 13 14  1  0
 13 11  1  0
 15 13  1  0
 15 14  1  0
 16 15  1  0
 17 16  2  0
 18 16  1  0
  1 19  1  1
  2 20  1  0
  2 21  1  0
  3 22  1  1
  4 23  1  0
  6 24  1  0
  8 25  1  0
 10 26  1  0
 13 27  1  6
 14 28  1  0
 14 29  1  0
 15 30  1  1
 18 31  1  0
M  ISO  8  19  13  20  13  21  13  22  13  23  14  24  14  25  14  27  13
M  ISO  4  28  13  29  13  30  13  31   3
M  END
>  <minimizedAffinity>  (1) 
-4.51448441

>  <minimizedRMSD>  (1) 
0.231088251

$$$$
