
     RDKit          3D

 34 36  0  0  0  0  0  0  0  0999 V2000
   47.6990   31.0050   46.0160 C   0  0  0  0  0  0  0  0  0  0  0  0
   46.9770   32.0660   45.5360 C   0  0  0  0  0  0  0  0  0  0  0  0
   45.9810   32.5770   46.3330 C   0  0  0  0  0  0  0  0  0  0  0  0
   45.6890   32.0650   47.5790 C   0  0  0  0  0  0  0  0  0  0  0  0
   44.8090   32.3240   48.5780 N   0  0  0  0  0  0  0  0  0  0  0  0
   44.9920   31.4620   49.6060 C   0  0  0  0  0  0  0  0  0  0  0  0
   46.0040   30.6610   49.2290 N   0  0  0  0  0  0  0  0  0  0  0  0
   46.4400   31.0110   48.0040 C   0  0  0  0  0  0  0  0  0  0  0  0
   47.4380   30.4600   47.2650 C   0  0  0  0  0  0  0  0  0  0  0  0
   47.1950   34.4100   42.7250 C   0  0  0  0  0  0  0  0  0  0  0  0
   47.8220   33.6550   41.7370 C   0  0  0  0  0  0  0  0  0  0  0  0
   48.1560   32.3420   42.0730 C   0  0  0  0  0  0  0  0  0  0  0  0
   47.8700   31.8580   43.3080 N   0  0  0  0  0  0  0  0  0  0  0  0
   47.2660   32.6270   44.2180 C   0  0  0  0  0  0  0  0  0  0  0  0
   46.9210   33.8940   43.9570 N   0  0  0  0  0  0  0  0  0  0  0  0
   48.0830   34.2960   40.4230 C   0  0  0  0  0  0  0  0  0  0  0  0
   48.5900   35.5470   40.7320 F   0  0  0  0  0  0  0  0  0  0  0  0
   46.8930   34.4170   39.7600 F   0  0  0  0  0  0  0  0  0  0  0  0
   48.9850   33.4960   39.7250 F   0  0  0  0  0  0  0  0  0  0  0  0
   48.1730   29.3790   47.7510 O   0  0  0  0  0  0  0  0  0  0  0  0
   49.7790   28.0710   49.2990 O   0  0  0  0  0  0  0  0  0  0  0  0
   49.4430   29.4990   48.8430 P   0  0  2  0  0  0  0  0  0  0  0  0
   48.9040   30.3530   50.1960 O   0  0  0  0  0  0  0  0  0  0  0  0
   50.8340   30.2030   48.2010 O   0  0  0  0  0  0  0  0  0  0  0  0
   51.6710   29.3800   47.4240 C   0  0  0  0  0  0  0  0  0  0  0  0
   52.7600   28.8530   47.8070 O   0  0  0  0  0  0  0  0  0  0  0  0
   48.5021   30.5765   45.3984 H   0  0  0  0  0  0  0  0  0  0  0  0
   45.3929   33.4292   45.9616 H   0  0  0  0  0  0  0  0  0  0  0  0
   44.1008   33.0716   48.5575 H   0  0  0  0  0  0  0  0  0  0  0  0
   44.4306   31.4248   50.5512 H   0  0  0  0  0  0  0  0  0  0  0  0
   46.9133   35.4504   42.5057 H   0  0  0  0  0  0  0  0  0  0  0  0
   48.6531   31.6970   41.3335 H   0  0  0  0  0  0  0  0  0  0  0  0
   49.1979   29.8874   51.0188 H   0  0  0  0  0  0  0  0  0  0  0  0
   51.3522   29.1752   46.3913 H   0  0  0  0  0  0  0  0  0  0  0  0
  1  9  2  0
  2  1  1  0
  2  3  2  0
  3  4  1  0
  4  8  2  0
  4  5  1  0
  5  6  1  0
  7  6  2  0
  8  7  1  0
  9 20  1  0
  9  8  1  0
 10 15  2  0
 11 12  2  0
 11 10  1  0
 12 13  1  0
 13 14  2  0
 14  2  1  0
 15 14  1  0
 16 17  1  0
 16 11  1  0
 18 16  1  0
 19 16  1  0
 20 22  1  0
 22 21  2  0
 22 23  1  0
 24 22  1  0
 25 26  2  0
 25 24  1  0
  1 27  1  0
  3 28  1  0
  5 29  1  0
  6 30  1  0
 10 31  1  0
 12 32  1  0
 23 33  1  0
 25 34  1  0
M  ISO  8  27  14  28  14  29   9  30  14  31  14  32  14  33   3  34   6
M  END
>  <minimizedAffinity>  (1) 
-5.33849859

>  <minimizedRMSD>  (1) 
0.26646468

$$$$
