
     RDKit          3D

 32 34  0  0  1  0  0  0  0  0999 V2000
   46.3200   32.1340   44.5510 C   0  0  1  0  0  0  0  0  0  0  0  0
   46.4480   31.3700   43.3850 C   0  0  0  0  0  0  0  0  0  0  0  0
   47.6780   32.1360   43.9670 C   0  0  1  0  0  0  0  0  0  0  0  0
   45.0630   33.9840   43.2090 C   0  0  0  0  0  0  0  0  0  0  0  0
   45.5530   33.4640   44.4520 C   0  0  0  0  0  0  0  0  0  0  0  0
   45.3330   34.2180   45.5850 C   0  0  0  0  0  0  0  0  0  0  0  0
   44.6800   35.3940   45.4820 N   0  0  0  0  0  0  0  0  0  0  0  0
   44.2220   35.8750   44.2890 C   0  0  0  0  0  0  0  0  0  0  0  0
   44.4280   35.1360   43.1230 N   0  0  0  0  0  0  0  0  0  0  0  0
   48.0370   33.2610   43.1800 N   0  0  0  0  0  0  0  0  0  0  0  0
   49.1870   33.3130   42.4020 C   0  0  0  0  0  0  0  0  0  0  0  0
   50.3610   32.9270   42.6400 O   0  0  0  0  0  0  0  0  0  0  0  0
   49.1100   33.9200   41.0090 C   0  0  2  0  0  0  0  0  0  0  0  0
   48.6110   35.4100   40.9280 C   0  0  0  0  0  0  0  0  0  0  0  0
   47.8230   34.2570   40.3940 C   0  0  1  0  0  0  0  0  0  0  0  0
   47.7180   34.1190   38.8940 C   0  0  0  0  0  0  0  0  0  0  0  0
   48.4630   34.7590   38.1650 O   0  0  0  0  0  0  0  0  0  0  0  0
   46.7660   33.2550   38.2840 N   0  0  0  0  0  0  0  0  0  0  0  0
   45.9255   31.8872   45.5477 H   0  0  0  0  0  0  0  0  0  0  0  0
   45.9796   31.7095   42.4494 H   0  0  0  0  0  0  0  0  0  0  0  0
   46.2381   30.3260   43.1093 H   0  0  0  0  0  0  0  0  0  0  0  0
   48.6919   31.9261   44.3383 H   0  0  0  0  0  0  0  0  0  0  0  0
   45.2232   33.3989   42.2914 H   0  0  0  0  0  0  0  0  0  0  0  0
   45.6868   33.8638   46.5645 H   0  0  0  0  0  0  0  0  0  0  0  0
   43.6939   36.8390   44.2471 H   0  0  0  0  0  0  0  0  0  0  0  0
   47.4133   34.0807   43.1858 H   0  0  0  0  0  0  0  0  0  0  0  0
   49.9762   33.3313   40.6726 H   0  0  0  0  0  0  0  0  0  0  0  0
   48.2821   35.9385   41.8349 H   0  0  0  0  0  0  0  0  0  0  0  0
   49.0010   36.3586   40.5304 H   0  0  0  0  0  0  0  0  0  0  0  0
   46.7926   33.9100   40.5611 H   0  0  0  0  0  0  0  0  0  0  0  0
   46.7193   33.1829   37.2576 H   0  0  0  0  0  0  0  0  0  0  0  0
   46.1236   32.7017   38.8689 H   0  0  0  0  0  0  0  0  0  0  0  0
  2  3  1  0
  2  1  1  0
  3  1  1  0
  4  5  2  0
  5  1  1  0
  5  6  1  0
  7  6  2  0
  8  7  1  0
  9  4  1  0
  9  8  2  0
 10  3  1  0
 11 12  2  0
 11 10  1  0
 13 11  1  0
 14 13  1  0
 15 14  1  0
 15 13  1  0
 16 15  1  0
 17 16  2  0
 18 16  1  0
  1 19  1  1
  2 20  1  0
  2 21  1  0
  3 22  1  1
  4 23  1  0
  6 24  1  0
  8 25  1  0
 10 26  1  0
 13 27  1  6
 14 28  1  0
 14 29  1  0
 15 30  1  1
 18 31  1  0
 18 32  1  0
M  ISO  8  19  13  20  13  21  13  22  13  23  14  24  14  25  14  27  13
M  ISO  3  28  13  29  13  30  13
M  END
>  <minimizedAffinity>  (1) 
-4.45342398

>  <minimizedRMSD>  (1) 
0.0365209915

$$$$
