
     RDKit          3D

 51 54  0  0  0  0  0  0  0  0999 V2000
   47.7690   31.0670   45.9670 C   0  0  0  0  0  0  0  0  0  0  0  0
   47.0050   32.0710   45.4460 C   0  0  0  0  0  0  0  0  0  0  0  0
   45.9520   32.5220   46.1980 C   0  0  0  0  0  0  0  0  0  0  0  0
   45.6300   32.0150   47.4430 C   0  0  0  0  0  0  0  0  0  0  0  0
   44.6940   32.2360   48.3950 N   0  0  0  0  0  0  0  0  0  0  0  0
   44.9040   31.3840   49.4440 C   0  0  0  0  0  0  0  0  0  0  0  0
   45.9790   30.6390   49.1240 N   0  0  0  0  0  0  0  0  0  0  0  0
   46.4270   31.0120   47.9130 C   0  0  0  0  0  0  0  0  0  0  0  0
   47.4980   30.5110   47.2160 C   0  0  0  0  0  0  0  0  0  0  0  0
   47.2660   34.4230   42.6590 C   0  0  0  0  0  0  0  0  0  0  0  0
   47.8980   33.6520   41.6580 C   0  0  0  0  0  0  0  0  0  0  0  0
   48.2130   32.3270   41.9960 C   0  0  0  0  0  0  0  0  0  0  0  0
   47.9170   31.8310   43.2240 N   0  0  0  0  0  0  0  0  0  0  0  0
   47.3070   32.6390   44.1350 C   0  0  0  0  0  0  0  0  0  0  0  0
   46.9810   33.9130   43.8760 N   0  0  0  0  0  0  0  0  0  0  0  0
   48.1770   34.2850   40.3530 C   0  0  0  0  0  0  0  0  0  0  0  0
   48.7200   35.5130   40.6620 F   0  0  0  0  0  0  0  0  0  0  0  0
   47.0050   34.4600   39.6990 F   0  0  0  0  0  0  0  0  0  0  0  0
   49.0690   33.4720   39.6560 F   0  0  0  0  0  0  0  0  0  0  0  0
   48.2730   29.4900   47.7470 O   0  0  0  0  0  0  0  0  0  0  0  0
   49.8830   28.2970   49.3970 O   0  0  0  0  0  0  0  0  0  0  0  0
   49.4520   29.6770   48.9310 P   0  0  2  0  0  0  0  0  0  0  0  0
   48.7340   30.4360   50.2680 O   0  0  0  0  0  0  0  0  0  0  0  0
   50.7840   30.5500   48.4230 O   0  0  0  0  0  0  0  0  0  0  0  0
   51.6790   30.8880   49.4100 C   0  0  0  0  0  0  0  0  0  0  0  0
   51.5650   32.3920   49.6290 C   0  0  0  0  0  0  0  0  0  0  0  0
   52.0920   32.7770   50.9190 N   0  0  0  0  0  0  0  0  0  0  0  0
   51.3120   32.0320   51.9210 C   0  0  0  0  0  0  0  0  0  0  0  0
   51.7210   32.5850   53.2700 C   0  0  0  0  0  0  0  0  0  0  0  0
   52.8700   33.3760   53.1890 O   0  0  0  0  0  0  0  0  0  0  0  0
   52.6650   34.5190   52.4370 C   0  0  0  0  0  0  0  0  0  0  0  0
   51.8190   34.1670   51.2290 C   0  0  0  0  0  0  0  0  0  0  0  0
   48.6216   30.6864   45.3854 H   0  0  0  0  0  0  0  0  0  0  0  0
   45.3293   33.3312   45.7888 H   0  0  0  0  0  0  0  0  0  0  0  0
   43.9410   32.9365   48.3384 H   0  0  0  0  0  0  0  0  0  0  0  0
   44.3109   31.3199   50.3682 H   0  0  0  0  0  0  0  0  0  0  0  0
   46.9988   35.4675   42.4408 H   0  0  0  0  0  0  0  0  0  0  0  0
   48.7069   31.6812   41.2550 H   0  0  0  0  0  0  0  0  0  0  0  0
   49.0998   30.0493   51.1027 H   0  0  0  0  0  0  0  0  0  0  0  0
   51.4346   30.3526   50.3393 H   0  0  0  0  0  0  0  0  0  0  0  0
   52.7033   30.6134   49.1178 H   0  0  0  0  0  0  0  0  0  0  0  0
   52.1298   32.9125   48.8415 H   0  0  0  0  0  0  0  0  0  0  0  0
   50.5009   32.6682   49.5925 H   0  0  0  0  0  0  0  0  0  0  0  0
   50.2351   32.1847   51.7567 H   0  0  0  0  0  0  0  0  0  0  0  0
   51.5037   30.9508   51.8558 H   0  0  0  0  0  0  0  0  0  0  0  0
   50.8972   33.1963   53.6670 H   0  0  0  0  0  0  0  0  0  0  0  0
   51.9422   31.7342   53.9312 H   0  0  0  0  0  0  0  0  0  0  0  0
   52.1441   35.2729   53.0456 H   0  0  0  0  0  0  0  0  0  0  0  0
   53.6321   34.9274   52.1085 H   0  0  0  0  0  0  0  0  0  0  0  0
   52.0916   34.8061   50.3762 H   0  0  0  0  0  0  0  0  0  0  0  0
   50.7500   34.3234   51.4358 H   0  0  0  0  0  0  0  0  0  0  0  0
  1  9  2  0
  2  1  1  0
  2  3  2  0
  3  4  1  0
  4  8  2  0
  4  5  1  0
  5  6  1  0
  7  6  2  0
  8  7  1  0
  9 20  1  0
  9  8  1  0
 10 15  2  0
 11 12  2  0
 11 10  1  0
 12 13  1  0
 13 14  2  0
 14  2  1  0
 15 14  1  0
 16 17  1  0
 16 11  1  0
 18 16  1  0
 19 16  1  0
 20 22  1  0
 22 21  2  0
 22 23  1  0
 24 22  1  0
 24 25  1  0
 25 26  1  0
 26 27  1  0
 27 32  1  0
 27 28  1  0
 28 29  1  0
 30 29  1  0
 31 30  1  0
 32 31  1  0
  1 33  1  0
  3 34  1  0
  5 35  1  0
  6 36  1  0
 10 37  1  0
 12 38  1  0
 23 39  1  0
 25 40  1  0
 25 41  1  0
 26 42  1  0
 26 43  1  0
 28 44  1  0
 28 45  1  0
 29 46  1  0
 29 47  1  0
 31 48  1  0
 31 49  1  0
 32 50  1  0
 32 51  1  0
M  ISO  8  33  14  34  14  35   9  36  14  37  14  38  14  39   3  40   8
M  ISO  8  41   8  42   8  43   8  44  13  45  13  46  13  47  13  48  13
M  ISO  3  49  13  50  13  51  13
M  END
>  <minimizedAffinity>  (1) 
-6.1217227

>  <minimizedRMSD>  (1) 
0.864969552

$$$$
