
     RDKit          3D

 17 18  0  0  0  0  0  0  0  0999 V2000
   45.5010   34.0500   44.6220 C   0  0  0  0  0  0  0  0  0  0  0  0
   46.4770   33.3140   43.9000 C   0  0  0  0  0  0  0  0  0  0  0  0
   47.2690   32.4140   44.6260 C   0  0  0  0  0  0  0  0  0  0  0  0
   47.0580   32.3000   45.9770 N   0  0  0  0  0  0  0  0  0  0  0  0
   46.1190   33.0220   46.6160 C   0  0  0  0  0  0  0  0  0  0  0  0
   45.3480   33.8890   45.9460 N   0  0  0  0  0  0  0  0  0  0  0  0
   44.6550   35.0090   43.8550 C   0  0  0  0  0  0  0  0  0  0  0  0
   44.7920   36.4630   44.3500 C   0  0  0  0  0  0  0  0  0  0  0  0
   45.2320   36.0400   42.9940 C   0  0  0  0  0  0  0  0  0  0  0  0
   46.6063   33.4447   42.8155 H   0  0  0  0  0  0  0  0  0  0  0  0
   48.0418   31.8130   44.1244 H   0  0  0  0  0  0  0  0  0  0  0  0
   45.9830   32.8989   47.7006 H   0  0  0  0  0  0  0  0  0  0  0  0
   43.8712   34.2594   43.6712 H   0  0  0  0  0  0  0  0  0  0  0  0
   43.9002   37.0950   44.4736 H   0  0  0  0  0  0  0  0  0  0  0  0
   45.2562   36.9650   45.2117 H   0  0  0  0  0  0  0  0  0  0  0  0
   46.3060   36.0097   42.7583 H   0  0  0  0  0  0  0  0  0  0  0  0
   45.0062   36.3943   41.9774 H   0  0  0  0  0  0  0  0  0  0  0  0
  1  6  1  0
  2  1  2  0
  2  3  1  0
  3  4  2  0
  4  5  1  0
  6  5  2  0
  7  8  1  0
  7  1  1  0
  9  7  1  0
  9  8  1  0
  2 10  1  0
  3 11  1  0
  5 12  1  0
  7 13  1  0
  8 14  1  0
  8 15  1  0
  9 16  1  0
  9 17  1  0
M  ISO  8  10  14  11  14  12  14  13  13  14  13  15  13  16  13  17  13
M  END
>  <minimizedAffinity>  (1) 
-2.99027228

>  <minimizedRMSD>  (1) 
2.24958229

$$$$
