
     RDKit          3D

 33 36  0  0  1  0  0  0  0  0999 V2000
   44.3620   34.2520   42.8400 C   0  0  1  0  0  0  0  0  0  0  0  0
   44.6400   35.7290   42.4830 C   0  0  0  0  0  0  0  0  0  0  0  0
   44.7400   34.6370   41.4920 C   0  0  2  0  0  0  0  0  0  0  0  0
   43.7460   34.3610   40.4490 C   0  0  0  0  0  0  0  0  0  0  0  0
   44.2980   33.4800   39.5080 C   0  0  0  0  0  0  0  0  0  0  0  0
   43.5500   33.0100   38.4200 C   0  0  0  0  0  0  0  0  0  0  0  0
   42.2280   33.4390   38.2870 C   0  0  0  0  0  0  0  0  0  0  0  0
   41.6750   34.3060   39.2050 C   0  0  0  0  0  0  0  0  0  0  0  0
   40.3930   34.8000   39.1650 C   0  0  0  0  0  0  0  0  0  0  0  0
   39.9240   35.6850   40.1340 C   0  0  0  0  0  0  0  0  0  0  0  0
   40.7360   36.1100   41.1890 C   0  0  0  0  0  0  0  0  0  0  0  0
   42.0300   35.6190   41.2420 C   0  0  0  0  0  0  0  0  0  0  0  0
   42.4400   34.7490   40.2620 C   0  0  0  0  0  0  0  0  0  0  0  0
   45.3190   33.6910   43.8260 C   0  0  0  0  0  0  0  0  0  0  0  0
   46.3520   32.8330   43.3330 C   0  0  0  0  0  0  0  0  0  0  0  0
   47.2590   32.3100   44.2720 C   0  0  0  0  0  0  0  0  0  0  0  0
   47.0910   32.6590   45.5790 N   0  0  0  0  0  0  0  0  0  0  0  0
   46.0940   33.4800   45.9980 C   0  0  0  0  0  0  0  0  0  0  0  0
   45.2150   33.9900   45.1190 N   0  0  0  0  0  0  0  0  0  0  0  0
   43.5449   33.6170   43.2129 H   0  0  0  0  0  0  0  0  0  0  0  0
   43.8148   36.4545   42.4312 H   0  0  0  0  0  0  0  0  0  0  0  0
   45.3022   36.5240   42.8565 H   0  0  0  0  0  0  0  0  0  0  0  0
   45.5465   34.4080   40.7799 H   0  0  0  0  0  0  0  0  0  0  0  0
   45.3408   33.1506   39.6264 H   0  0  0  0  0  0  0  0  0  0  0  0
   43.9940   32.3193   37.6880 H   0  0  0  0  0  0  0  0  0  0  0  0
   41.6219   33.0817   37.4415 H   0  0  0  0  0  0  0  0  0  0  0  0
   39.7223   34.4899   38.3501 H   0  0  0  0  0  0  0  0  0  0  0  0
   38.8912   36.0575   40.0669 H   0  0  0  0  0  0  0  0  0  0  0  0
   40.3607   36.8097   41.9503 H   0  0  0  0  0  0  0  0  0  0  0  0
   42.7132   35.9190   42.0502 H   0  0  0  0  0  0  0  0  0  0  0  0
   46.4336   32.5921   42.2628 H   0  0  0  0  0  0  0  0  0  0  0  0
   48.0762   31.6420   43.9623 H   0  0  0  0  0  0  0  0  0  0  0  0
   46.0052   33.7296   47.0656 H   0  0  0  0  0  0  0  0  0  0  0  0
  1 14  1  0
  2  1  1  0
  3  2  1  0
  3  1  1  0
  4  3  1  0
  5  4  2  0
  6  5  1  0
  7  6  2  0
  7  8  1  0
  8 13  2  0
  9  8  1  0
  9 10  2  0
 10 11  1  0
 11 12  2  0
 13  4  1  0
 13 12  1  0
 14 19  1  0
 15 14  2  0
 15 16  1  0
 16 17  2  0
 17 18  1  0
 19 18  2  0
  1 20  1  6
  2 21  1  0
  2 22  1  0
  3 23  1  6
  5 24  1  0
  6 25  1  0
  7 26  1  0
  9 27  1  0
 10 28  1  0
 11 29  1  0
 12 30  1  0
 15 31  1  0
 16 32  1  0
 18 33  1  0
M  ISO  8  20  13  21  13  22  13  23  13  24  14  25  14  26  14  27  14
M  ISO  6  28  14  29  14  30  14  31  14  32  14  33  14
M  END
>  <minimizedAffinity>  (1) 
-5.38957214

>  <minimizedRMSD>  (1) 
2.15668869

$$$$
