
     RDKit          3D

 27 29  0  0  1  0  0  0  0  0999 V2000
   44.5620   34.4810   43.8370 C   0  0  1  0  0  0  0  0  0  0  0  0
   45.0680   35.9410   43.8540 C   0  0  0  0  0  0  0  0  0  0  0  0
   44.9260   35.1560   42.6120 C   0  0  1  0  0  0  0  0  0  0  0  0
   45.4490   33.5520   44.5780 C   0  0  0  0  0  0  0  0  0  0  0  0
   45.8860   32.3910   43.8750 C   0  0  0  0  0  0  0  0  0  0  0  0
   46.7310   31.4940   44.5140 C   0  0  0  0  0  0  0  0  0  0  0  0
   47.0950   31.7910   45.7960 N   0  0  0  0  0  0  0  0  0  0  0  0
   46.6590   32.9050   46.4340 C   0  0  0  0  0  0  0  0  0  0  0  0
   45.8490   33.7680   45.8260 N   0  0  0  0  0  0  0  0  0  0  0  0
   44.7080   33.4610   40.0640 Cl  0  0  0  0  0  0  0  0  0  0  0  0
   46.2080   34.1890   40.6480 C   0  0  0  0  0  0  0  0  0  0  0  0
   46.1540   34.9410   41.8280 C   0  0  0  0  0  0  0  0  0  0  0  0
   47.3760   35.4620   42.1870 C   0  0  0  0  0  0  0  0  0  0  0  0
   48.5450   35.2800   41.4770 C   0  0  0  0  0  0  0  0  0  0  0  0
   48.5280   34.5270   40.3210 C   0  0  0  0  0  0  0  0  0  0  0  0
   47.3400   33.9700   39.8950 C   0  0  0  0  0  0  0  0  0  0  0  0
   43.6718   33.8872   44.0917 H   0  0  0  0  0  0  0  0  0  0  0  0
   44.3770   36.7684   44.0731 H   0  0  0  0  0  0  0  0  0  0  0  0
   45.8745   36.4965   44.3549 H   0  0  0  0  0  0  0  0  0  0  0  0
   44.3706   35.2225   41.6648 H   0  0  0  0  0  0  0  0  0  0  0  0
   45.5582   32.2087   42.8409 H   0  0  0  0  0  0  0  0  0  0  0  0
   47.0911   30.5849   44.0102 H   0  0  0  0  0  0  0  0  0  0  0  0
   46.9793   33.0981   47.4685 H   0  0  0  0  0  0  0  0  0  0  0  0
   47.4243   36.0663   43.1049 H   0  0  0  0  0  0  0  0  0  0  0  0
   49.4837   35.7319   41.8300 H   0  0  0  0  0  0  0  0  0  0  0  0
   49.4523   34.3724   39.7450 H   0  0  0  0  0  0  0  0  0  0  0  0
   47.2980   33.3659   38.9767 H   0  0  0  0  0  0  0  0  0  0  0  0
  1  2  1  0
  1  4  1  0
  3  1  1  0
  3  2  1  0
  4  9  2  0
  5  6  2  0
  5  4  1  0
  6  7  1  0
  7  8  2  0
  9  8  1  0
 10 11  1  0
 11 12  2  0
 12 13  1  0
 12  3  1  0
 14 13  2  0
 15 14  1  0
 16 15  2  0
 16 11  1  0
  1 17  1  6
  2 18  1  0
  2 19  1  0
  3 20  1  6
  5 21  1  0
  6 22  1  0
  8 23  1  0
 13 24  1  0
 14 25  1  0
 15 26  1  0
 16 27  1  0
M  ISO  8  17  13  18  13  19  13  20  13  21  14  22  14  23  14  24  14
M  ISO  3  25  14  26  14  27  14
M  END
>  <minimizedAffinity>  (1) 
-4.57377338

>  <minimizedRMSD>  (1) 
1.63522637

$$$$
