
     RDKit          3D

 30 32  0  0  1  0  0  0  0  0999 V2000
   44.8120   34.3560   43.2890 C   0  0  1  0  0  0  0  0  0  0  0  0
   45.4210   35.7800   43.3250 C   0  0  0  0  0  0  0  0  0  0  0  0
   45.6330   34.8200   42.1950 C   0  0  1  0  0  0  0  0  0  0  0  0
   45.3000   33.5180   44.4190 C   0  0  0  0  0  0  0  0  0  0  0  0
   45.6150   32.1760   44.0900 C   0  0  0  0  0  0  0  0  0  0  0  0
   46.0950   31.3390   45.0860 C   0  0  0  0  0  0  0  0  0  0  0  0
   46.2370   31.8590   46.3370 N   0  0  0  0  0  0  0  0  0  0  0  0
   45.9270   33.1410   46.6150 C   0  0  0  0  0  0  0  0  0  0  0  0
   45.4670   33.9520   45.6660 N   0  0  0  0  0  0  0  0  0  0  0  0
   47.2030   33.7690   40.6550 C   0  0  2  0  0  0  0  0  0  0  0  0
   47.0900   34.5000   41.9780 C   0  0  1  0  0  0  0  0  0  0  0  0
   47.8790   35.6250   41.8840 O   0  0  0  0  0  0  0  0  0  0  0  0
   48.7580   35.4970   40.8530 C   0  0  0  0  0  0  0  0  0  0  0  0
   48.5480   34.1820   40.1630 C   0  0  2  0  0  0  0  0  0  0  0  0
   46.2450   34.3000   39.7830 O   0  0  0  0  0  0  0  0  0  0  0  0
   48.5270   34.3550   38.7730 O   0  0  0  0  0  0  0  0  0  0  0  0
   43.8385   33.8443   43.2704 H   0  0  0  0  0  0  0  0  0  0  0  0
   44.7814   36.6653   43.1942 H   0  0  0  0  0  0  0  0  0  0  0  0
   46.0582   36.3577   44.0108 H   0  0  0  0  0  0  0  0  0  0  0  0
   45.4308   34.7354   41.1171 H   0  0  0  0  0  0  0  0  0  0  0  0
   45.4812   31.8050   43.0631 H   0  0  0  0  0  0  0  0  0  0  0  0
   46.3523   30.2909   44.8731 H   0  0  0  0  0  0  0  0  0  0  0  0
   46.0559   33.5213   47.6391 H   0  0  0  0  0  0  0  0  0  0  0  0
   47.0657   32.6803   40.7316 H   0  0  0  0  0  0  0  0  0  0  0  0
   47.4349   33.9091   42.8394 H   0  0  0  0  0  0  0  0  0  0  0  0
   48.5994   36.3150   40.1349 H   0  0  0  0  0  0  0  0  0  0  0  0
   49.7848   35.5401   41.2452 H   0  0  0  0  0  0  0  0  0  0  0  0
   49.3392   33.4460   40.3687 H   0  0  0  0  0  0  0  0  0  0  0  0
   45.5107   34.7070   40.3077 H   0  0  0  0  0  0  0  0  0  0  0  0
   48.4105   35.3151   38.5617 H   0  0  0  0  0  0  0  0  0  0  0  0
  1  2  1  0
  1  4  1  0
  3  1  1  0
  3  2  1  0
  4  9  1  0
  5  4  2  0
  5  6  1  0
  6  7  2  0
  7  8  1  0
  9  8  2  0
 10 15  1  0
 10 11  1  0
 11 12  1  0
 11  3  1  0
 13 12  1  0
 14 16  1  0
 14 10  1  0
 14 13  1  0
  1 17  1  6
  2 18  1  0
  2 19  1  0
  3 20  1  6
  5 21  1  0
  6 22  1  0
  8 23  1  0
 10 24  1  1
 11 25  1  1
 13 26  1  0
 13 27  1  0
 14 28  1  6
 15 29  1  0
 16 30  1  0
M  ISO  8  17  13  18  13  19  13  20  13  21  14  22  14  23  14  24  13
M  ISO  6  25  13  26  13  27  13  28  13  29   3  30   3
M  END
>  <minimizedAffinity>  (1) 
-4.52018404

>  <minimizedRMSD>  (1) 
1.47177017

$$$$
