
     RDKit          3D

 24 26  0  0  1  0  0  0  0  0999 V2000
   46.1230   33.5560   42.2930 C   0  0  1  0  0  0  0  0  0  0  0  0
   46.2620   35.0970   42.1790 C   0  0  0  0  0  0  0  0  0  0  0  0
   47.1410   34.1600   41.4530 C   0  0  1  0  0  0  0  0  0  0  0  0
   46.3960   33.0400   43.6580 C   0  0  0  0  0  0  0  0  0  0  0  0
   46.9130   31.7200   43.7710 C   0  0  0  0  0  0  0  0  0  0  0  0
   47.1780   31.2310   45.0530 C   0  0  0  0  0  0  0  0  0  0  0  0
   46.9240   32.0540   46.1320 N   0  0  0  0  0  0  0  0  0  0  0  0
   46.4290   33.3050   45.9590 C   0  0  0  0  0  0  0  0  0  0  0  0
   46.1660   33.8000   44.7250 N   0  0  0  0  0  0  0  0  0  0  0  0
   48.5510   34.1540   41.9470 C   0  0  0  0  0  0  0  0  0  0  0  0
   49.5730   33.2100   41.7850 C   0  0  0  0  0  0  0  0  0  0  0  0
   50.7110   33.6220   42.4130 C   0  0  0  0  0  0  0  0  0  0  0  0
   50.3630   34.8000   42.9410 N   0  0  0  0  0  0  0  0  0  0  0  0
   49.1120   35.1480   42.6940 N   0  0  0  0  0  0  0  0  0  0  0  0
   45.3915   32.7593   42.0925 H   0  0  0  0  0  0  0  0  0  0  0  0
   45.5072   35.6863   41.6377 H   0  0  0  0  0  0  0  0  0  0  0  0
   46.4002   35.9353   42.8777 H   0  0  0  0  0  0  0  0  0  0  0  0
   47.4070   33.9983   40.3980 H   0  0  0  0  0  0  0  0  0  0  0  0
   47.0982   31.1041   42.8786 H   0  0  0  0  0  0  0  0  0  0  0  0
   47.5785   30.2169   45.1986 H   0  0  0  0  0  0  0  0  0  0  0  0
   46.2364   33.9328   46.8415 H   0  0  0  0  0  0  0  0  0  0  0  0
   49.4716   32.2668   41.2282 H   0  0  0  0  0  0  0  0  0  0  0  0
   51.6821   33.1086   42.4712 H   0  0  0  0  0  0  0  0  0  0  0  0
   51.0106   35.3831   43.4901 H   0  0  0  0  0  0  0  0  0  0  0  0
  1  4  1  0
  2  1  1  0
  3 10  1  0
  3  2  1  0
  3  1  1  0
  4  5  2  0
  4  9  1  0
  5  6  1  0
  6  7  2  0
  8  7  1  0
  9  8  2  0
 10 14  2  0
 11 10  1  0
 11 12  2  0
 12 13  1  0
 14 13  1  0
  1 15  1  6
  2 16  1  0
  2 17  1  0
  3 18  1  6
  5 19  1  0
  6 20  1  0
  8 21  1  0
 11 22  1  0
 12 23  1  0
 13 24  1  0
M  ISO  8  15  13  16  13  17  13  18  13  19  14  20  14  21  14  22  14
M  ISO  2  23  14  24   9
M  END
>  <minimizedAffinity>  (1) 
-4.22238636

>  <minimizedRMSD>  (1) 
2.31602526

$$$$
