
     RDKit          3D

 23 24  0  0  1  0  0  0  0  0999 V2000
   46.7700   33.5560   42.3190 C   0  0  1  0  0  0  0  0  0  0  0  0
   46.9040   34.3310   40.9850 C   0  0  0  0  0  0  0  0  0  0  0  0
   48.0640   33.9660   41.8200 C   0  0  1  0  0  0  0  0  0  0  0  0
   45.9940   34.3060   43.3400 C   0  0  0  0  0  0  0  0  0  0  0  0
   45.8780   33.7120   44.6320 C   0  0  0  0  0  0  0  0  0  0  0  0
   45.1760   34.3880   45.6210 C   0  0  0  0  0  0  0  0  0  0  0  0
   44.6450   35.5880   45.2690 N   0  0  0  0  0  0  0  0  0  0  0  0
   44.7620   36.1290   44.0550 C   0  0  0  0  0  0  0  0  0  0  0  0
   45.4360   35.4900   43.0850 N   0  0  0  0  0  0  0  0  0  0  0  0
   48.9940   34.9620   42.3960 C   0  0  0  0  0  0  0  0  0  0  0  0
   49.2220   36.1900   41.5670 C   0  0  0  0  0  0  0  0  0  0  0  0
   46.4250   32.5872   42.7093 H   0  0  0  0  0  0  0  0  0  0  0  0
   46.5760   35.3785   40.9130 H   0  0  0  0  0  0  0  0  0  0  0  0
   46.5960   34.1743   39.9407 H   0  0  0  0  0  0  0  0  0  0  0  0
   48.9963   33.4016   41.6709 H   0  0  0  0  0  0  0  0  0  0  0  0
   46.3372   32.7345   44.8412 H   0  0  0  0  0  0  0  0  0  0  0  0
   45.0564   33.9749   46.6334 H   0  0  0  0  0  0  0  0  0  0  0  0
   44.3026   37.1066   43.8469 H   0  0  0  0  0  0  0  0  0  0  0  0
   48.5896   35.2802   43.3682 H   0  0  0  0  0  0  0  0  0  0  0  0
   49.9699   34.4589   42.4636 H   0  0  0  0  0  0  0  0  0  0  0  0
   49.3825   37.0542   42.2283 H   0  0  0  0  0  0  0  0  0  0  0  0
   50.1085   36.0445   40.9322 H   0  0  0  0  0  0  0  0  0  0  0  0
   48.3424   36.3724   40.9322 H   0  0  0  0  0  0  0  0  0  0  0  0
  1  4  1  0
  2  3  1  0
  2  1  1  0
  3  1  1  0
  3 10  1  0
  4  5  2  0
  5  6  1  0
  7  6  2  0
  8  7  1  0
  9  4  1  0
  9  8  2  0
 11 10  1  0
  1 12  1  6
  2 13  1  0
  2 14  1  0
  3 15  1  6
  5 16  1  0
  6 17  1  0
  8 18  1  0
 10 19  1  0
 10 20  1  0
 11 21  1  0
 11 22  1  0
 11 23  1  0
M  ISO  8  12  13  13  13  14  13  15  13  16  14  17  14  18  14  19   8
M  ISO  4  20   8  21   8  22   8  23   8
M  END
>  <minimizedAffinity>  (1) 
-4.0517478

>  <minimizedRMSD>  (1) 
3.23022056

$$$$
