
     RDKit          3D

 19 20  0  0  1  0  0  0  0  0999 V2000
   44.7670   34.5300   43.0980 C   0  0  1  0  0  0  0  0  0  0  0  0
   45.1470   36.0190   43.3070 C   0  0  0  0  0  0  0  0  0  0  0  0
   45.6570   35.1910   42.1720 C   0  0  1  0  0  0  0  0  0  0  0  0
   45.2380   33.6670   44.2030 C   0  0  0  0  0  0  0  0  0  0  0  0
   45.5670   32.3110   43.9100 C   0  0  0  0  0  0  0  0  0  0  0  0
   46.0270   31.4810   44.9280 C   0  0  0  0  0  0  0  0  0  0  0  0
   46.1390   32.0400   46.1850 N   0  0  0  0  0  0  0  0  0  0  0  0
   45.8140   33.3360   46.4190 C   0  0  0  0  0  0  0  0  0  0  0  0
   45.3730   34.1290   45.4450 N   0  0  0  0  0  0  0  0  0  0  0  0
   47.1280   34.9920   42.1660 C   0  0  0  0  0  0  0  0  0  0  0  0
   47.5980   34.7960   41.0420 O   0  0  0  0  0  0  0  0  0  0  0  0
   43.8811   33.9035   42.9172 H   0  0  0  0  0  0  0  0  0  0  0  0
   44.4082   36.8147   43.1309 H   0  0  0  0  0  0  0  0  0  0  0  0
   45.5872   36.6239   44.1134 H   0  0  0  0  0  0  0  0  0  0  0  0
   45.6305   35.2207   41.0727 H   0  0  0  0  0  0  0  0  0  0  0  0
   45.4580   31.9235   42.8863 H   0  0  0  0  0  0  0  0  0  0  0  0
   46.2889   30.4293   44.7398 H   0  0  0  0  0  0  0  0  0  0  0  0
   45.9172   33.7408   47.4366 H   0  0  0  0  0  0  0  0  0  0  0  0
   47.7419   35.0169   43.0784 H   0  0  0  0  0  0  0  0  0  0  0  0
  1  2  1  0
  1  4  1  0
  3  1  1  0
  3  2  1  0
  4  9  1  0
  5  4  2  0
  5  6  1  0
  6  7  2  0
  7  8  1  0
  9  8  2  0
 10  3  1  0
 11 10  2  0
  1 12  1  6
  2 13  1  0
  2 14  1  0
  3 15  1  6
  5 16  1  0
  6 17  1  0
  8 18  1  0
 10 19  1  0
M  ISO  8  12  13  13  13  14  13  15  13  16  14  17  14  18  14  19   6
M  END
>  <minimizedAffinity>  (1) 
-3.2359128

>  <minimizedRMSD>  (1) 
1.24290097

$$$$
