
     RDKit          3D

 30 32  0  0  1  0  0  0  0  0999 V2000
   46.0730   33.5860   41.8940 C   0  0  1  0  0  0  0  0  0  0  0  0
   45.4520   32.1910   42.0520 C   0  0  0  0  0  0  0  0  0  0  0  0
   45.1180   33.2630   42.9730 C   0  0  1  0  0  0  0  0  0  0  0  0
   47.5380   33.6560   42.1150 C   0  0  0  0  0  0  0  0  0  0  0  0
   48.1230   34.9240   42.2820 C   0  0  0  0  0  0  0  0  0  0  0  0
   49.5050   34.9760   42.4780 C   0  0  0  0  0  0  0  0  0  0  0  0
   50.2090   33.7960   42.4960 N   0  0  0  0  0  0  0  0  0  0  0  0
   49.5880   32.5930   42.3270 C   0  0  0  0  0  0  0  0  0  0  0  0
   48.2600   32.5230   42.1380 N   0  0  0  0  0  0  0  0  0  0  0  0
   45.6680   33.1740   44.3570 C   0  0  0  0  0  0  0  0  0  0  0  0
   45.8880   34.1430   45.3230 C   0  0  0  0  0  0  0  0  0  0  0  0
   46.3840   33.5630   46.4290 N   0  0  0  0  0  0  0  0  0  0  0  0
   46.4760   32.2470   46.1630 C   0  0  0  0  0  0  0  0  0  0  0  0
   46.0500   31.9780   44.9150 N   0  0  0  0  0  0  0  0  0  0  0  0
   46.9600   31.3330   47.1110 O   0  0  0  0  0  0  0  0  0  0  0  0
   45.2470   30.2460   48.8560 O   0  0  0  0  0  0  0  0  0  0  0  0
   46.3720   31.2410   48.7000 P   0  0  0  0  0  0  0  0  0  0  0  0
   45.8550   32.7320   49.2910 O   0  0  0  0  0  0  0  0  0  0  0  0
   47.6500   30.7150   49.6790 O   0  0  0  0  0  0  0  0  0  0  0  0
   46.1208   34.3990   41.1545 H   0  0  0  0  0  0  0  0  0  0  0  0
   44.7060   31.8332   41.3271 H   0  0  0  0  0  0  0  0  0  0  0  0
   45.8421   31.1673   42.1510 H   0  0  0  0  0  0  0  0  0  0  0  0
   44.1676   33.7050   43.3067 H   0  0  0  0  0  0  0  0  0  0  0  0
   47.5150   35.8404   42.2591 H   0  0  0  0  0  0  0  0  0  0  0  0
   50.0180   35.9394   42.6148 H   0  0  0  0  0  0  0  0  0  0  0  0
   50.1829   31.6679   42.3458 H   0  0  0  0  0  0  0  0  0  0  0  0
   45.6880   35.2180   45.2032 H   0  0  0  0  0  0  0  0  0  0  0  0
   46.6430   34.0334   47.3080 H   0  0  0  0  0  0  0  0  0  0  0  0
   45.8610   32.7147   50.2808 H   0  0  0  0  0  0  0  0  0  0  0  0
   47.4001   30.8179   50.6314 H   0  0  0  0  0  0  0  0  0  0  0  0
  1  2  1  0
  1  4  1  0
  1  3  1  0
  2  3  1  0
  3 10  1  0
  4  9  1  0
  4  5  2  0
  5  6  1  0
  6  7  2  0
  8  7  1  0
  9  8  2  0
 10 14  1  0
 10 11  2  0
 11 12  1  0
 13 12  1  0
 13 15  1  0
 14 13  2  0
 15 17  1  0
 17 16  2  0
 17 18  1  0
 17 19  1  0
  1 20  1  6
  2 21  1  0
  2 22  1  0
  3 23  1  1
  5 24  1  0
  6 25  1  0
  8 26  1  0
 11 27  1  0
 12 28  1  0
 18 29  1  0
 19 30  1  0
M  ISO  8  20  13  21  13  22  13  23  13  24  14  25  14  26  14  27  14
M  ISO  3  28   9  29   3  30   3
M  END
>  <minimizedAffinity>  (1) 
-5.1880002

>  <minimizedRMSD>  (1) 
4.51539516

$$$$
