
     RDKit          3D

 31 34  0  0  1  0  0  0  0  0999 V2000
   46.1370   33.4930   41.3460 C   0  0  1  0  0  0  0  0  0  0  0  0
   45.6520   32.1010   41.7690 C   0  0  0  0  0  0  0  0  0  0  0  0
   45.0180   33.2990   42.2840 C   0  0  1  0  0  0  0  0  0  0  0  0
   47.5120   33.8450   41.8000 C   0  0  0  0  0  0  0  0  0  0  0  0
   47.9060   35.1940   41.7120 C   0  0  0  0  0  0  0  0  0  0  0  0
   49.1940   35.5220   42.1230 C   0  0  0  0  0  0  0  0  0  0  0  0
   50.0010   34.5130   42.5890 N   0  0  0  0  0  0  0  0  0  0  0  0
   49.5650   33.2210   42.6510 C   0  0  0  0  0  0  0  0  0  0  0  0
   48.3280   32.8830   42.2590 N   0  0  0  0  0  0  0  0  0  0  0  0
   45.2640   33.6470   43.7140 C   0  0  0  0  0  0  0  0  0  0  0  0
   45.2140   34.8550   44.3890 C   0  0  0  0  0  0  0  0  0  0  0  0
   45.4960   34.6460   45.6890 N   0  0  0  0  0  0  0  0  0  0  0  0
   45.7190   33.3270   45.8260 C   0  0  0  0  0  0  0  0  0  0  0  0
   45.5850   32.6920   44.6510 N   0  0  0  0  0  0  0  0  0  0  0  0
   46.0560   32.7290   47.1130 C   0  0  0  0  0  0  0  0  0  0  0  0
   47.3030   32.4180   47.6080 C   0  0  0  0  0  0  0  0  0  0  0  0
   47.1510   31.8770   48.8460 N   0  0  0  0  0  0  0  0  0  0  0  0
   45.8290   31.8460   49.1310 C   0  0  0  0  0  0  0  0  0  0  0  0
   45.1690   32.3720   48.0600 N   0  0  0  0  0  0  0  0  0  0  0  0
   46.2519   34.0955   40.4329 H   0  0  0  0  0  0  0  0  0  0  0  0
   45.1201   31.4594   41.0510 H   0  0  0  0  0  0  0  0  0  0  0  0
   46.1201   31.2100   42.2129 H   0  0  0  0  0  0  0  0  0  0  0  0
   43.9764   33.6518   42.3097 H   0  0  0  0  0  0  0  0  0  0  0  0
   47.2181   35.9631   41.3309 H   0  0  0  0  0  0  0  0  0  0  0  0
   49.5557   36.5598   42.0761 H   0  0  0  0  0  0  0  0  0  0  0  0
   50.2420   32.4414   43.0302 H   0  0  0  0  0  0  0  0  0  0  0  0
   44.9811   35.8298   43.9356 H   0  0  0  0  0  0  0  0  0  0  0  0
   45.5336   35.3573   46.4330 H   0  0  0  0  0  0  0  0  0  0  0  0
   48.2596   32.5798   47.0897 H   0  0  0  0  0  0  0  0  0  0  0  0
   47.9100   31.5481   49.4598 H   0  0  0  0  0  0  0  0  0  0  0  0
   45.3709   31.4664   50.0562 H   0  0  0  0  0  0  0  0  0  0  0  0
  1  2  1  0
  1  4  1  0
  1  3  1  0
  2  3  1  0
  3 10  1  0
  4  9  1  0
  5  4  2  0
  5  6  1  0
  6  7  2  0
  7  8  1  0
  9  8  2  0
 10 11  2  0
 10 14  1  0
 11 12  1  0
 12 13  1  0
 13 15  1  0
 14 13  2  0
 15 16  2  0
 15 19  1  0
 16 17  1  0
 17 18  1  0
 19 18  2  0
  1 20  1  6
  2 21  1  0
  2 22  1  0
  3 23  1  6
  5 24  1  0
  6 25  1  0
  8 26  1  0
 11 27  1  0
 12 28  1  0
 16 29  1  0
 17 30  1  0
 18 31  1  0
M  ISO  8  20  13  21  13  22  13  23  13  24  14  25  14  26  14  27  14
M  ISO  4  28   9  29  14  30   9  31  14
M  END
>  <minimizedAffinity>  (1) 
-5.04161215

>  <minimizedRMSD>  (1) 
3.11849523

$$$$
