
     RDKit          3D

 33 35  0  0  1  0  0  0  0  0999 V2000
   45.8630   34.2730   40.8430 C   0  0  2  0  0  0  0  0  0  0  0  0
   46.6970   33.0610   40.8420 C   0  0  0  0  0  0  0  0  0  0  0  0
   48.0900   33.5990   41.0810 C   0  0  0  0  0  0  0  0  0  0  0  0
   47.9210   34.9410   41.7420 C   0  0  0  0  0  0  0  0  0  0  0  0
   46.4430   35.1330   41.9140 C   0  0  2  0  0  0  0  0  0  0  0  0
   42.1220   34.7080   40.7570 C   0  0  0  0  0  0  0  0  0  0  0  0
   43.4770   35.0620   40.6160 C   0  0  0  0  0  0  0  0  0  0  0  0
   44.4140   34.0680   40.9440 C   0  0  0  0  0  0  0  0  0  0  0  0
   43.9880   32.8480   41.3710 N   0  0  0  0  0  0  0  0  0  0  0  0
   42.6770   32.5610   41.4880 C   0  0  0  0  0  0  0  0  0  0  0  0
   41.7470   33.4800   41.1850 N   0  0  0  0  0  0  0  0  0  0  0  0
   45.9400   34.9320   43.2770 C   0  0  0  0  0  0  0  0  0  0  0  0
   46.2350   33.9080   44.1520 C   0  0  0  0  0  0  0  0  0  0  0  0
   45.6980   33.8150   45.4170 C   0  0  0  0  0  0  0  0  0  0  0  0
   44.8170   34.7740   45.8710 C   0  0  0  0  0  0  0  0  0  0  0  0
   44.4730   35.8170   45.0760 C   0  0  0  0  0  0  0  0  0  0  0  0
   45.0380   35.8580   43.8240 C   0  0  0  0  0  0  0  0  0  0  0  0
   45.9030   34.7581   39.8565 H   0  0  0  0  0  0  0  0  0  0  0  0
   46.3959   32.3745   41.6470 H   0  0  0  0  0  0  0  0  0  0  0  0
   46.6128   32.4806   39.9114 H   0  0  0  0  0  0  0  0  0  0  0  0
   48.6524   32.9195   41.7383 H   0  0  0  0  0  0  0  0  0  0  0  0
   48.6501   33.6870   40.1384 H   0  0  0  0  0  0  0  0  0  0  0  0
   48.4243   34.9516   42.7200 H   0  0  0  0  0  0  0  0  0  0  0  0
   48.3648   35.7465   41.1385 H   0  0  0  0  0  0  0  0  0  0  0  0
   46.1281   36.1801   41.7942 H   0  0  0  0  0  0  0  0  0  0  0  0
   41.3470   35.4494   40.5128 H   0  0  0  0  0  0  0  0  0  0  0  0
   43.7845   36.0595   40.2690 H   0  0  0  0  0  0  0  0  0  0  0  0
   42.3660   31.5646   41.8350 H   0  0  0  0  0  0  0  0  0  0  0  0
   46.9348   33.1256   43.8231 H   0  0  0  0  0  0  0  0  0  0  0  0
   45.9731   32.9721   46.0680 H   0  0  0  0  0  0  0  0  0  0  0  0
   44.3917   34.6924   46.8822 H   0  0  0  0  0  0  0  0  0  0  0  0
   43.7739   36.5946   45.4175 H   0  0  0  0  0  0  0  0  0  0  0  0
   44.7535   36.7056   43.1831 H   0  0  0  0  0  0  0  0  0  0  0  0
  1  8  1  0
  1  5  1  0
  2  1  1  0
  2  3  1  0
  3  4  1  0
  4  5  1  0
  5 12  1  0
  6 11  2  0
  7  6  1  0
  7  8  2  0
  8  9  1  0
  9 10  2  0
 11 10  1  0
 12 17  1  0
 12 13  2  0
 13 14  1  0
 14 15  2  0
 16 15  1  0
 17 16  2  0
  1 18  1  6
  2 19  1  0
  2 20  1  0
  3 21  1  0
  3 22  1  0
  4 23  1  0
  4 24  1  0
  5 25  1  6
  6 26  1  0
  7 27  1  0
 10 28  1  0
 13 29  1  0
 14 30  1  0
 15 31  1  0
 16 32  1  0
 17 33  1  0
M  ISO  8  18  13  19  13  20  13  21  13  22  13  23  13  24  13  25  13
M  ISO  8  26  14  27  14  28  14  29  14  30  14  31  14  32  14  33  14
M  END
>  <minimizedAffinity>  (1) 
-5.18202353

>  <minimizedRMSD>  (1) 
3.93742466

$$$$
