
     RDKit          3D

 29 30  0  0  1  0  0  0  0  0999 V2000
   46.6490   34.7620   41.6310 C   0  0  2  0  0  0  0  0  0  0  0  0
   45.9330   33.8720   40.6690 C   0  0  0  0  0  0  0  0  0  0  0  0
   47.0050   33.7080   39.6000 C   0  0  0  0  0  0  0  0  0  0  0  0
   48.3300   33.8040   40.3320 C   0  0  0  0  0  0  0  0  0  0  0  0
   47.9680   34.0010   41.7960 C   0  0  1  0  0  0  0  0  0  0  0  0
   44.6340   36.1590   44.4960 C   0  0  0  0  0  0  0  0  0  0  0  0
   45.2330   36.0900   43.2430 C   0  0  0  0  0  0  0  0  0  0  0  0
   45.9710   34.9480   42.9330 C   0  0  0  0  0  0  0  0  0  0  0  0
   46.0740   33.9440   43.8750 N   0  0  0  0  0  0  0  0  0  0  0  0
   45.4750   34.0560   45.0780 C   0  0  0  0  0  0  0  0  0  0  0  0
   44.7590   35.1600   45.3850 N   0  0  0  0  0  0  0  0  0  0  0  0
   48.9450   34.9730   42.4290 C   0  0  0  0  0  0  0  0  0  0  0  0
   49.2060   36.1460   41.5160 C   0  0  0  0  0  0  0  0  0  0  0  0
   46.7308   35.7957   41.2639 H   0  0  0  0  0  0  0  0  0  0  0  0
   45.6651   32.9088   41.1278 H   0  0  0  0  0  0  0  0  0  0  0  0
   44.9741   34.2672   40.3025 H   0  0  0  0  0  0  0  0  0  0  0  0
   46.9229   34.5069   38.8483 H   0  0  0  0  0  0  0  0  0  0  0  0
   46.9038   32.7518   39.0658 H   0  0  0  0  0  0  0  0  0  0  0  0
   48.9107   32.8791   40.2000 H   0  0  0  0  0  0  0  0  0  0  0  0
   48.9506   34.6276   39.9492 H   0  0  0  0  0  0  0  0  0  0  0  0
   47.9487   33.0778   42.3938 H   0  0  0  0  0  0  0  0  0  0  0  0
   44.0462   37.0492   44.7644 H   0  0  0  0  0  0  0  0  0  0  0  0
   45.1280   36.9110   42.5185 H   0  0  0  0  0  0  0  0  0  0  0  0
   45.5699   33.2438   45.8137 H   0  0  0  0  0  0  0  0  0  0  0  0
   48.5242   35.3408   43.3764 H   0  0  0  0  0  0  0  0  0  0  0  0
   49.8954   34.4491   42.6083 H   0  0  0  0  0  0  0  0  0  0  0  0
   49.4057   37.0434   42.1200 H   0  0  0  0  0  0  0  0  0  0  0  0
   50.0780   35.9297   40.8813 H   0  0  0  0  0  0  0  0  0  0  0  0
   48.3246   36.3199   40.8813 H   0  0  0  0  0  0  0  0  0  0  0  0
  1  5  1  0
  1  8  1  0
  2  1  1  0
  3  4  1  0
  3  2  1  0
  4  5  1  0
  5 12  1  0
  6 11  2  0
  7  6  1  0
  8  7  2  0
  8  9  1  0
  9 10  2  0
 10 11  1  0
 13 12  1  0
  1 14  1  6
  2 15  1  0
  2 16  1  0
  3 17  1  0
  3 18  1  0
  4 19  1  0
  4 20  1  0
  5 21  1  1
  6 22  1  0
  7 23  1  0
 10 24  1  0
 12 25  1  0
 12 26  1  0
 13 27  1  0
 13 28  1  0
 13 29  1  0
M  ISO  8  14  13  15  13  16  13  17  13  18  13  19  13  20  13  21  13
M  ISO  8  22  14  23  14  24  14  25   8  26   8  27   8  28   8  29   8
M  END
>  <minimizedAffinity>  (1) 
-4.81013441

>  <minimizedRMSD>  (1) 
1.22844958

$$$$
