
     RDKit          3D

 30 32  0  0  1  0  0  0  0  0999 V2000
   45.7560   34.5220   41.9280 C   0  0  2  0  0  0  0  0  0  0  0  0
   45.0910   33.4120   41.1860 C   0  0  0  0  0  0  0  0  0  0  0  0
   45.7890   33.5420   39.8320 C   0  0  0  0  0  0  0  0  0  0  0  0
   47.1970   34.0000   40.1660 C   0  0  0  0  0  0  0  0  0  0  0  0
   47.2290   34.2130   41.6660 C   0  0  1  0  0  0  0  0  0  0  0  0
   44.5180   35.5500   45.3430 C   0  0  0  0  0  0  0  0  0  0  0  0
   44.7430   35.6280   43.9520 C   0  0  0  0  0  0  0  0  0  0  0  0
   45.4550   34.5860   43.3740 C   0  0  0  0  0  0  0  0  0  0  0  0
   45.8920   33.5580   44.1670 N   0  0  0  0  0  0  0  0  0  0  0  0
   45.6550   33.5240   45.4840 C   0  0  0  0  0  0  0  0  0  0  0  0
   44.9770   34.5020   46.0830 N   0  0  0  0  0  0  0  0  0  0  0  0
   48.0390   35.4440   42.0010 C   0  0  0  0  0  0  0  0  0  0  0  0
   49.1340   35.8670   41.0140 C   0  0  0  0  0  0  0  0  0  0  0  0
   49.5200   35.2570   42.3150 C   0  0  0  0  0  0  0  0  0  0  0  0
   45.4115   35.5104   41.5897 H   0  0  0  0  0  0  0  0  0  0  0  0
   45.2848   32.4351   41.6531 H   0  0  0  0  0  0  0  0  0  0  0  0
   43.9933   33.4719   41.1489 H   0  0  0  0  0  0  0  0  0  0  0  0
   45.2785   34.2855   39.2023 H   0  0  0  0  0  0  0  0  0  0  0  0
   45.7816   32.5977   39.2679 H   0  0  0  0  0  0  0  0  0  0  0  0
   47.9272   33.2306   39.8747 H   0  0  0  0  0  0  0  0  0  0  0  0
   47.4570   34.9219   39.6251 H   0  0  0  0  0  0  0  0  0  0  0  0
   47.6582   33.3758   42.2360 H   0  0  0  0  0  0  0  0  0  0  0  0
   43.9584   36.3549   45.8420 H   0  0  0  0  0  0  0  0  0  0  0  0
   44.3720   36.4738   43.3546 H   0  0  0  0  0  0  0  0  0  0  0  0
   46.0252   32.6768   46.0800 H   0  0  0  0  0  0  0  0  0  0  0  0
   47.1854   35.9354   42.4909 H   0  0  0  0  0  0  0  0  0  0  0  0
   49.2778   35.3037   40.0802 H   0  0  0  0  0  0  0  0  0  0  0  0
   49.3867   36.8017   40.4920 H   0  0  0  0  0  0  0  0  0  0  0  0
   49.9972   35.8761   43.0889 H   0  0  0  0  0  0  0  0  0  0  0  0
   50.1432   34.3999   42.6097 H   0  0  0  0  0  0  0  0  0  0  0  0
  1  8  1  0
  2  1  1  0
  3  4  1  0
  3  2  1  0
  4  5  1  0
  5  1  1  0
  5 12  1  0
  6 11  2  0
  7  6  1  0
  8  7  2  0
  8  9  1  0
  9 10  2  0
 10 11  1  0
 12 14  1  0
 13 12  1  0
 13 14  1  0
  1 15  1  6
  2 16  1  0
  2 17  1  0
  3 18  1  0
  3 19  1  0
  4 20  1  0
  4 21  1  0
  5 22  1  1
  6 23  1  0
  7 24  1  0
 10 25  1  0
 12 26  1  0
 13 27  1  0
 13 28  1  0
 14 29  1  0
 14 30  1  0
M  ISO  8  15  13  16  13  17  13  18  13  19  13  20  13  21  13  22  13
M  ISO  8  23  14  24  14  25  14  26  13  27  13  28  13  29  13  30  13
M  END
>  <minimizedAffinity>  (1) 
-4.79877186

>  <minimizedRMSD>  (1) 
1.4796766

$$$$
