
     RDKit          3D

 27 28  0  0  1  0  0  0  0  0999 V2000
   46.4640   34.2380   40.6870 C   0  0  2  0  0  0  0  0  0  0  0  0
   46.4980   32.8980   40.0440 C   0  0  0  0  0  0  0  0  0  0  0  0
   47.1040   33.3000   38.6980 C   0  0  0  0  0  0  0  0  0  0  0  0
   48.1470   34.3290   39.0680 C   0  0  0  0  0  0  0  0  0  0  0  0
   47.9340   34.6600   40.5460 C   0  0  2  0  0  0  0  0  0  0  0  0
   45.2110   35.3030   44.0770 C   0  0  0  0  0  0  0  0  0  0  0  0
   45.6400   35.4490   42.7390 C   0  0  0  0  0  0  0  0  0  0  0  0
   46.0010   34.2790   42.0830 C   0  0  0  0  0  0  0  0  0  0  0  0
   45.9260   33.0670   42.7530 N   0  0  0  0  0  0  0  0  0  0  0  0
   45.5110   32.9870   44.0280 C   0  0  0  0  0  0  0  0  0  0  0  0
   45.1550   34.0970   44.6880 N   0  0  0  0  0  0  0  0  0  0  0  0
   48.7690   33.9600   41.3690 O   0  0  0  0  0  0  0  0  0  0  0  0
   49.4930   34.7660   42.2270 C   0  0  0  0  0  0  0  0  0  0  0  0
   48.8480   34.7080   43.4560 F   0  0  0  0  0  0  0  0  0  0  0  0
   50.8180   34.4720   42.3230 F   0  0  0  0  0  0  0  0  0  0  0  0
   49.3900   36.0730   41.7880 F   0  0  0  0  0  0  0  0  0  0  0  0
   45.7252   34.9028   40.2156 H   0  0  0  0  0  0  0  0  0  0  0  0
   47.1399   32.1926   40.5922 H   0  0  0  0  0  0  0  0  0  0  0  0
   45.5338   32.3711   39.9926 H   0  0  0  0  0  0  0  0  0  0  0  0
   46.3395   33.7361   38.0382 H   0  0  0  0  0  0  0  0  0  0  0  0
   47.5245   32.4455   38.1475 H   0  0  0  0  0  0  0  0  0  0  0  0
   49.1558   33.9187   38.9131 H   0  0  0  0  0  0  0  0  0  0  0  0
   48.0528   35.2297   38.4436 H   0  0  0  0  0  0  0  0  0  0  0  0
   48.1481   35.7015   40.8280 H   0  0  0  0  0  0  0  0  0  0  0  0
   44.9127   36.1992   44.6407 H   0  0  0  0  0  0  0  0  0  0  0  0
   45.6855   36.4312   42.2458 H   0  0  0  0  0  0  0  0  0  0  0  0
   45.4635   32.0096   44.5304 H   0  0  0  0  0  0  0  0  0  0  0  0
  1  8  1  0
  2  1  1  0
  3  4  1  0
  3  2  1  0
  4  5  1  0
  5  1  1  0
  5 12  1  0
  6 11  2  0
  7  6  1  0
  8  7  2  0
  8  9  1  0
  9 10  2  0
 10 11  1  0
 12 13  1  0
 13 15  1  0
 13 14  1  0
 16 13  1  0
  1 17  1  6
  2 18  1  0
  2 19  1  0
  3 20  1  0
  3 21  1  0
  4 22  1  0
  4 23  1  0
  5 24  1  6
  6 25  1  0
  7 26  1  0
 10 27  1  0
M  ISO  8  17  13  18  13  19  13  20  13  21  13  22  13  23  13  24  13
M  ISO  3  25  14  26  14  27  14
M  END
>  <minimizedAffinity>  (1) 
-4.63566828

>  <minimizedRMSD>  (1) 
1.66588962

$$$$
