
     RDKit          3D

 48 51  0  0  1  0  0  0  0  0999 V2000
   46.5760   34.3710   43.6840 C   0  0  2  0  0  0  0  0  0  0  0  0
   46.1690   33.1690   44.4820 C   0  0  0  0  0  0  0  0  0  0  0  0
   45.5470   33.8590   45.6790 C   0  0  0  0  0  0  0  0  0  0  0  0
   44.8450   35.0080   45.1210 C   0  0  0  0  0  0  0  0  0  0  0  0
   45.2660   35.1090   43.5720 C   0  0  2  0  0  0  0  0  0  0  0  0
   48.1520   34.5880   40.2870 C   0  0  0  0  0  0  0  0  0  0  0  0
   47.6270   35.0370   41.5170 C   0  0  0  0  0  0  0  0  0  0  0  0
   47.1400   34.0860   42.3480 C   0  0  0  0  0  0  0  0  0  0  0  0
   47.1850   32.7470   41.9480 N   0  0  0  0  0  0  0  0  0  0  0  0
   47.6890   32.3550   40.7760 C   0  0  0  0  0  0  0  0  0  0  0  0
   48.1720   33.2770   39.9450 N   0  0  0  0  0  0  0  0  0  0  0  0
   44.3010   34.4230   42.8590 O   0  0  0  0  0  0  0  0  0  0  0  0
   43.4260   34.9560   41.9510 C   0  0  0  0  0  0  0  0  0  0  0  0
   44.0160   35.9710   41.4060 O   0  0  0  0  0  0  0  0  0  0  0  0
   42.1100   34.9200   41.2940 C   0  0  0  0  0  0  0  0  0  0  0  0
   41.2340   35.9220   41.0880 C   0  0  0  0  0  0  0  0  0  0  0  0
   39.9020   35.9590   40.4430 C   0  0  0  0  0  0  0  0  0  0  0  0
   39.4770   34.5930   39.9880 C   0  0  0  0  0  0  0  0  0  0  0  0
   39.6250   34.3060   38.6290 C   0  0  0  0  0  0  0  0  0  0  0  0
   39.2880   33.1050   38.0400 C   0  0  0  0  0  0  0  0  0  0  0  0
   38.7710   32.1410   38.8720 C   0  0  0  0  0  0  0  0  0  0  0  0
   38.4340   30.9590   38.3180 N   0  0  0  0  0  0  0  0  0  0  0  0
   37.9180   29.9680   39.0890 C   0  0  0  0  0  0  0  0  0  0  0  0
   37.7530   30.2040   40.4400 C   0  0  0  0  0  0  0  0  0  0  0  0
   38.0860   31.3980   41.0350 C   0  0  0  0  0  0  0  0  0  0  0  0
   38.6100   32.3920   40.2240 C   0  0  0  0  0  0  0  0  0  0  0  0
   38.9570   33.6020   40.7850 C   0  0  0  0  0  0  0  0  0  0  0  0
   47.3985   34.9186   44.1674 H   0  0  0  0  0  0  0  0  0  0  0  0
   45.4396   32.5468   43.9428 H   0  0  0  0  0  0  0  0  0  0  0  0
   46.9827   32.4674   44.7179 H   0  0  0  0  0  0  0  0  0  0  0  0
   44.8437   33.1866   46.1921 H   0  0  0  0  0  0  0  0  0  0  0  0
   46.2986   34.1535   46.4263 H   0  0  0  0  0  0  0  0  0  0  0  0
   43.7578   34.8655   45.2085 H   0  0  0  0  0  0  0  0  0  0  0  0
   45.1090   35.9295   45.6606 H   0  0  0  0  0  0  0  0  0  0  0  0
   45.3513   36.0910   43.0837 H   0  0  0  0  0  0  0  0  0  0  0  0
   48.5590   35.3273   39.5815 H   0  0  0  0  0  0  0  0  0  0  0  0
   47.6141   36.1034   41.7865 H   0  0  0  0  0  0  0  0  0  0  0  0
   47.7052   31.2900   40.5014 H   0  0  0  0  0  0  0  0  0  0  0  0
   41.7972   33.9349   40.9176 H   0  0  0  0  0  0  0  0  0  0  0  0
   41.5718   36.8962   41.4711 H   0  0  0  0  0  0  0  0  0  0  0  0
   39.1651   36.3415   41.1647 H   0  0  0  0  0  0  0  0  0  0  0  0
   39.9615   36.6150   39.5620 H   0  0  0  0  0  0  0  0  0  0  0  0
   40.0397   35.0935   37.9826 H   0  0  0  0  0  0  0  0  0  0  0  0
   39.4256   32.9285   36.9630 H   0  0  0  0  0  0  0  0  0  0  0  0
   37.6379   28.9998   38.6483 H   0  0  0  0  0  0  0  0  0  0  0  0
   37.3371   29.4017   41.0672 H   0  0  0  0  0  0  0  0  0  0  0  0
   37.9419   31.5581   42.1137 H   0  0  0  0  0  0  0  0  0  0  0  0
   38.8187   33.7731   41.8628 H   0  0  0  0  0  0  0  0  0  0  0  0
  1  2  1  0
  2  3  1  0
  4  3  1  0
  5  1  1  0
  5  4  1  0
  6  7  2  0
  7  8  1  0
  8  1  1  0
  9  8  2  0
 10  9  1  0
 11  6  1  0
 11 10  2  0
 12  5  1  0
 13 12  1  0
 14 13  2  0
 15 13  1  0
 16 15  2  0
 17 16  1  0
 18 17  1  0
 18 27  1  0
 19 18  2  0
 20 19  1  0
 20 21  2  0
 21 26  1  0
 22 21  1  0
 22 23  2  0
 23 24  1  0
 24 25  2  0
 26 27  2  0
 26 25  1  0
  1 28  1  1
  2 29  1  0
  2 30  1  0
  3 31  1  0
  3 32  1  0
  4 33  1  0
  4 34  1  0
  5 35  1  6
  6 36  1  0
  7 37  1  0
 10 38  1  0
 15 39  1  0
 16 40  1  0
 17 41  1  0
 17 42  1  0
 19 43  1  0
 20 44  1  0
 23 45  1  0
 24 46  1  0
 25 47  1  0
 27 48  1  0
M  ISO  8  28  13  29  13  30  13  31  13  32  13  33  13  34  13  35  13
M  ISO  8  36  14  37  14  38  14  41   8  42   8  43  14  44  14  45  14
M  ISO  3  46  14  47  14  48  14
M  END
>  <minimizedAffinity>  (1) 
-6.81943989

>  <minimizedRMSD>  (1) 
1.1138618

$$$$
