
     RDKit          3D

 49 51  0  0  1  0  0  0  0  0999 V2000
   46.8330   34.2230   43.8860 C   0  0  2  0  0  0  0  0  0  0  0  0
   46.5300   32.9480   44.6120 C   0  0  0  0  0  0  0  0  0  0  0  0
   45.8540   33.5070   45.8410 C   0  0  0  0  0  0  0  0  0  0  0  0
   45.0610   34.6300   45.3550 C   0  0  0  0  0  0  0  0  0  0  0  0
   45.4730   34.8630   43.8230 C   0  0  2  0  0  0  0  0  0  0  0  0
   48.3070   34.7670   40.4810 C   0  0  0  0  0  0  0  0  0  0  0  0
   47.7410   35.1010   41.7320 C   0  0  0  0  0  0  0  0  0  0  0  0
   47.4180   34.0590   42.5320 C   0  0  0  0  0  0  0  0  0  0  0  0
   47.6540   32.7520   42.0950 N   0  0  0  0  0  0  0  0  0  0  0  0
   48.1910   32.4750   40.9060 C   0  0  0  0  0  0  0  0  0  0  0  0
   48.5180   33.4850   40.0990 N   0  0  0  0  0  0  0  0  0  0  0  0
   44.5580   34.1470   43.0700 O   0  0  0  0  0  0  0  0  0  0  0  0
   43.8600   34.5910   41.9900 C   0  0  0  0  0  0  0  0  0  0  0  0
   44.3540   33.9980   40.9530 O   0  0  0  0  0  0  0  0  0  0  0  0
   42.8000   35.4310   41.4090 C   0  0  0  0  0  0  0  0  0  0  0  0
   41.4930   35.2380   41.3160 C   0  0  0  0  0  0  0  0  0  0  0  0
   40.3100   35.9170   40.7890 C   0  0  0  0  0  0  0  0  0  0  0  0
   39.3900   35.2050   39.8980 C   0  0  0  0  0  0  0  0  0  0  0  0
   39.1460   33.8240   40.5730 C   0  0  0  0  0  0  0  0  0  0  0  0
   38.8810   32.7620   39.5490 C   0  0  0  0  0  0  0  0  0  0  0  0
   38.1980   33.2900   38.3160 C   0  0  0  0  0  0  0  0  0  0  0  0
   39.2020   34.1920   37.6190 C   0  0  0  0  0  0  0  0  0  0  0  0
   40.1300   34.8490   38.5960 C   0  0  0  0  0  0  0  0  0  0  0  0
   47.6105   34.8083   44.3988 H   0  0  0  0  0  0  0  0  0  0  0  0
   45.8562   32.2984   44.0342 H   0  0  0  0  0  0  0  0  0  0  0  0
   47.4017   32.3073   44.8111 H   0  0  0  0  0  0  0  0  0  0  0  0
   45.2068   32.7485   46.3055 H   0  0  0  0  0  0  0  0  0  0  0  0
   46.5792   33.8138   46.6091 H   0  0  0  0  0  0  0  0  0  0  0  0
   43.9888   34.3950   45.4268 H   0  0  0  0  0  0  0  0  0  0  0  0
   45.2483   35.5329   45.9547 H   0  0  0  0  0  0  0  0  0  0  0  0
   45.4859   35.8783   43.3998 H   0  0  0  0  0  0  0  0  0  0  0  0
   48.5864   35.5780   39.7923 H   0  0  0  0  0  0  0  0  0  0  0  0
   47.5733   36.1446   42.0367 H   0  0  0  0  0  0  0  0  0  0  0  0
   48.3609   31.4331   40.5969 H   0  0  0  0  0  0  0  0  0  0  0  0
   43.1533   36.3799   40.9792 H   0  0  0  0  0  0  0  0  0  0  0  0
   41.2130   34.2774   41.7729 H   0  0  0  0  0  0  0  0  0  0  0  0
   39.7199   36.2456   41.6572 H   0  0  0  0  0  0  0  0  0  0  0  0
   40.7354   36.6971   40.1405 H   0  0  0  0  0  0  0  0  0  0  0  0
   38.4871   35.8052   39.7121 H   0  0  0  0  0  0  0  0  0  0  0  0
   40.0367   33.5467   41.1559 H   0  0  0  0  0  0  0  0  0  0  0  0
   38.2656   33.9057   41.2274 H   0  0  0  0  0  0  0  0  0  0  0  0
   39.8408   32.3135   39.2530 H   0  0  0  0  0  0  0  0  0  0  0  0
   38.2065   32.0241   40.0078 H   0  0  0  0  0  0  0  0  0  0  0  0
   37.9112   32.4587   37.6551 H   0  0  0  0  0  0  0  0  0  0  0  0
   37.2812   33.8404   38.5742 H   0  0  0  0  0  0  0  0  0  0  0  0
   39.7943   33.5889   36.9152 H   0  0  0  0  0  0  0  0  0  0  0  0
   38.6455   34.9807   37.0915 H   0  0  0  0  0  0  0  0  0  0  0  0
   40.9563   34.1607   38.8274 H   0  0  0  0  0  0  0  0  0  0  0  0
   40.5177   35.7750   38.1462 H   0  0  0  0  0  0  0  0  0  0  0  0
  1  2  1  0
  2  3  1  0
  4  3  1  0
  5  1  1  0
  5  4  1  0
  6  7  2  0
  7  8  1  0
  8  1  1  0
  9  8  2  0
 10  9  1  0
 11  6  1  0
 11 10  2  0
 12  5  1  0
 13 12  1  0
 14 13  2  0
 15 13  1  0
 16 15  2  0
 17 16  1  0
 18 19  1  0
 18 17  1  0
 20 19  1  0
 21 20  1  0
 22 21  1  0
 22 23  1  0
 23 18  1  0
  1 24  1  1
  2 25  1  0
  2 26  1  0
  3 27  1  0
  3 28  1  0
  4 29  1  0
  4 30  1  0
  5 31  1  6
  6 32  1  0
  7 33  1  0
 10 34  1  0
 15 35  1  0
 16 36  1  0
 17 37  1  0
 17 38  1  0
 18 39  1  0
 19 40  1  0
 19 41  1  0
 20 42  1  0
 20 43  1  0
 21 44  1  0
 21 45  1  0
 22 46  1  0
 22 47  1  0
 23 48  1  0
 23 49  1  0
M  ISO  8  24  13  25  13  26  13  27  13  28  13  29  13  30  13  31  13
M  ISO  8  32  14  33  14  34  14  37   8  38   8  39  13  40  13  41  13
M  ISO  8  42  13  43  13  44  13  45  13  46  13  47  13  48  13  49  13
M  END
>  <minimizedAffinity>  (1) 
-6.31552458

>  <minimizedRMSD>  (1) 
0.843834758

$$$$
