
     RDKit          3D

 35 36  0  0  1  0  0  0  0  0999 V2000
   46.6940   34.3840   43.6290 C   0  0  2  0  0  0  0  0  0  0  0  0
   46.4100   33.1810   44.4690 C   0  0  0  0  0  0  0  0  0  0  0  0
   45.7130   33.8410   45.6390 C   0  0  0  0  0  0  0  0  0  0  0  0
   44.9110   34.9020   45.0430 C   0  0  0  0  0  0  0  0  0  0  0  0
   45.3200   34.9880   43.4930 C   0  0  2  0  0  0  0  0  0  0  0  0
   48.2800   34.6400   40.2410 C   0  0  0  0  0  0  0  0  0  0  0  0
   47.7210   35.0790   41.4570 C   0  0  0  0  0  0  0  0  0  0  0  0
   47.2890   34.1120   42.3010 C   0  0  0  0  0  0  0  0  0  0  0  0
   47.4200   32.7720   41.9260 N   0  0  0  0  0  0  0  0  0  0  0  0
   47.9550   32.3900   40.7660 C   0  0  0  0  0  0  0  0  0  0  0  0
   48.3880   33.3190   39.9160 N   0  0  0  0  0  0  0  0  0  0  0  0
   44.4290   34.1860   42.8080 O   0  0  0  0  0  0  0  0  0  0  0  0
   43.5320   34.5890   41.8520 C   0  0  0  0  0  0  0  0  0  0  0  0
   44.2040   35.1250   40.9030 O   0  0  0  0  0  0  0  0  0  0  0  0
   42.1340   34.6970   41.3990 C   0  0  0  0  0  0  0  0  0  0  0  0
   41.4510   35.7960   41.0280 C   0  0  0  0  0  0  0  0  0  0  0  0
   40.0620   36.0150   40.5670 C   0  0  0  0  0  0  0  0  0  0  0  0
   39.5670   34.9620   39.7170 N   0  0  0  0  0  0  0  0  0  0  0  0
   47.4576   35.0255   44.0930 H   0  0  0  0  0  0  0  0  0  0  0  0
   45.7527   32.4668   43.9514 H   0  0  0  0  0  0  0  0  0  0  0  0
   47.2924   32.5794   44.7328 H   0  0  0  0  0  0  0  0  0  0  0  0
   45.0713   33.1191   46.1654 H   0  0  0  0  0  0  0  0  0  0  0  0
   46.4252   34.2266   46.3834 H   0  0  0  0  0  0  0  0  0  0  0  0
   43.8410   34.6653   45.1384 H   0  0  0  0  0  0  0  0  0  0  0  0
   45.0918   35.8615   45.5497 H   0  0  0  0  0  0  0  0  0  0  0  0
   45.3091   35.9556   42.9699 H   0  0  0  0  0  0  0  0  0  0  0  0
   48.6439   35.3916   39.5250 H   0  0  0  0  0  0  0  0  0  0  0  0
   47.6399   36.1471   41.7070 H   0  0  0  0  0  0  0  0  0  0  0  0
   48.0375   31.3223   40.5147 H   0  0  0  0  0  0  0  0  0  0  0  0
   41.5727   33.7519   41.3585 H   0  0  0  0  0  0  0  0  0  0  0  0
   42.0467   36.7194   41.0776 H   0  0  0  0  0  0  0  0  0  0  0  0
   39.4092   36.0863   41.4495 H   0  0  0  0  0  0  0  0  0  0  0  0
   40.0601   36.9400   39.9717 H   0  0  0  0  0  0  0  0  0  0  0  0
   39.2054   34.1927   40.2986 H   0  0  0  0  0  0  0  0  0  0  0  0
   38.8098   35.3281   39.1224 H   0  0  0  0  0  0  0  0  0  0  0  0
  1  2  1  0
  2  3  1  0
  4  3  1  0
  5  1  1  0
  5  4  1  0
  6  7  2  0
  7  8  1  0
  8  1  1  0
  9  8  2  0
 10  9  1  0
 11  6  1  0
 11 10  2  0
 12  5  1  0
 13 12  1  0
 14 13  2  0
 15 13  1  0
 16 15  2  0
 17 16  1  0
 18 17  1  0
  1 19  1  1
  2 20  1  0
  2 21  1  0
  3 22  1  0
  3 23  1  0
  4 24  1  0
  4 25  1  0
  5 26  1  6
  6 27  1  0
  7 28  1  0
 10 29  1  0
 15 30  1  0
 16 31  1  0
 17 32  1  0
 17 33  1  0
 18 34  1  0
 18 35  1  0
M  ISO  8  19  13  20  13  21  13  22  13  23  13  24  13  25  13  26  13
M  ISO  7  27  14  28  14  29  14  32   8  33   8  34   5  35   5
M  END
>  <minimizedAffinity>  (1) 
-4.54607534

>  <minimizedRMSD>  (1) 
0.20684135

$$$$
