
     RDKit          3D

 18 18  0  0  0  0  0  0  0  0999 V2000
   45.0370   34.7800   44.2690 C   0  0  0  0  0  0  0  0  0  0  0  0
   45.5590   35.6030   43.2680 C   0  0  0  0  0  0  0  0  0  0  0  0
   46.4770   35.0330   42.3950 C   0  0  0  0  0  0  0  0  0  0  0  0
   46.8280   33.7300   42.5380 N   0  0  0  0  0  0  0  0  0  0  0  0
   46.2900   32.9630   43.5350 C   0  0  0  0  0  0  0  0  0  0  0  0
   45.4010   33.5010   44.3880 N   0  0  0  0  0  0  0  0  0  0  0  0
   45.2300   36.9260   43.0900 O   0  0  0  0  0  0  0  0  0  0  0  0
   45.1070   37.8550   44.0820 C   0  0  0  0  0  0  0  0  0  0  0  0
   45.4330   39.1110   43.8280 C   0  0  0  0  0  0  0  0  0  0  0  0
   45.3050   40.1450   44.9040 C   0  0  0  0  0  0  0  0  0  0  0  0
   44.3066   35.1969   44.9780 H   0  0  0  0  0  0  0  0  0  0  0  0
   46.9188   35.6371   41.5888 H   0  0  0  0  0  0  0  0  0  0  0  0
   46.5843   31.9082   43.6385 H   0  0  0  0  0  0  0  0  0  0  0  0
   44.7422   37.5634   45.0779 H   0  0  0  0  0  0  0  0  0  0  0  0
   45.7970   39.3956   42.8297 H   0  0  0  0  0  0  0  0  0  0  0  0
   45.3652   39.6587   45.8888 H   0  0  0  0  0  0  0  0  0  0  0  0
   46.1192   40.8782   44.8067 H   0  0  0  0  0  0  0  0  0  0  0  0
   44.3366   40.6575   44.8067 H   0  0  0  0  0  0  0  0  0  0  0  0
  1  6  2  0
  2  1  1  0
  3  4  1  0
  3  2  2  0
  4  5  2  0
  5  6  1  0
  7  2  1  0
  7  8  1  0
  9  8  2  0
  9 10  1  0
  1 11  1  0
  3 12  1  0
  5 13  1  0
  8 14  1  0
  9 15  1  0
 10 16  1  0
 10 17  1  0
 10 18  1  0
M  ISO  6  11  14  12  14  13  14  16   8  17   8  18   8
M  END
>  <minimizedAffinity>  (1) 
-2.61623335

>  <minimizedRMSD>  (1) 
1.58660913

$$$$
