
     RDKit          3D

 40 43  0  0  0  0  0  0  0  0999 V2000
   45.5240   35.2720   42.6920 O   0  0  0  0  0  0  0  0  0  0  0  0
   44.8970   34.9050   45.0510 C   0  0  0  0  0  0  0  0  0  0  0  0
   45.6590   34.6310   43.8990 C   0  0  0  0  0  0  0  0  0  0  0  0
   46.6390   33.6160   44.0010 C   0  0  0  0  0  0  0  0  0  0  0  0
   46.7800   32.9770   45.1910 N   0  0  0  0  0  0  0  0  0  0  0  0
   46.0320   33.2710   46.2610 C   0  0  0  0  0  0  0  0  0  0  0  0
   45.0910   34.2370   46.1890 N   0  0  0  0  0  0  0  0  0  0  0  0
   46.2280   32.5650   47.4810 N   0  0  0  0  0  0  0  0  0  0  0  0
   45.0840   32.0810   48.2290 C   0  0  0  0  0  0  0  0  0  0  0  0
   45.2990   30.5960   48.4190 C   0  0  0  0  0  0  0  0  0  0  0  0
   46.5840   30.2510   48.9340 N   0  0  0  0  0  0  0  0  0  0  0  0
   47.7080   30.8400   48.2880 C   0  0  0  0  0  0  0  0  0  0  0  0
   47.5600   32.3170   47.9970 C   0  0  0  0  0  0  0  0  0  0  0  0
   44.5740   34.9560   41.7260 C   0  0  0  0  0  0  0  0  0  0  0  0
   44.7480   34.1220   40.6320 C   0  0  0  0  0  0  0  0  0  0  0  0
   43.7000   33.9220   39.7750 C   0  0  0  0  0  0  0  0  0  0  0  0
   42.4620   34.5210   39.9540 C   0  0  0  0  0  0  0  0  0  0  0  0
   41.4930   34.2620   39.0570 N   0  0  0  0  0  0  0  0  0  0  0  0
   40.2780   34.8320   39.2070 C   0  0  0  0  0  0  0  0  0  0  0  0
   40.0700   35.6590   40.2730 C   0  0  0  0  0  0  0  0  0  0  0  0
   41.0740   35.9270   41.2020 C   0  0  0  0  0  0  0  0  0  0  0  0
   42.3110   35.3440   41.0460 C   0  0  0  0  0  0  0  0  0  0  0  0
   43.3440   35.5800   41.9450 C   0  0  0  0  0  0  0  0  0  0  0  0
   44.1247   35.6873   45.0115 H   0  0  0  0  0  0  0  0  0  0  0  0
   47.2699   33.3514   43.1396 H   0  0  0  0  0  0  0  0  0  0  0  0
   45.0258   32.5854   49.2048 H   0  0  0  0  0  0  0  0  0  0  0  0
   44.1431   32.2840   47.6966 H   0  0  0  0  0  0  0  0  0  0  0  0
   44.5360   30.2240   49.1186 H   0  0  0  0  0  0  0  0  0  0  0  0
   45.2248   30.1364   47.4224 H   0  0  0  0  0  0  0  0  0  0  0  0
   46.6097   30.5324   49.9245 H   0  0  0  0  0  0  0  0  0  0  0  0
   48.5870   30.7035   48.9351 H   0  0  0  0  0  0  0  0  0  0  0  0
   47.8090   30.3374   47.3147 H   0  0  0  0  0  0  0  0  0  0  0  0
   48.3077   32.6225   47.2502 H   0  0  0  0  0  0  0  0  0  0  0  0
   47.7147   32.8951   48.9200 H   0  0  0  0  0  0  0  0  0  0  0  0
   45.7149   33.6281   40.4555 H   0  0  0  0  0  0  0  0  0  0  0  0
   43.8454   33.2593   38.9091 H   0  0  0  0  0  0  0  0  0  0  0  0
   39.4722   34.6339   38.4848 H   0  0  0  0  0  0  0  0  0  0  0  0
   39.0829   36.1268   40.4024 H   0  0  0  0  0  0  0  0  0  0  0  0
   40.8796   36.5980   42.0517 H   0  0  0  0  0  0  0  0  0  0  0  0
   43.1962   36.2435   42.8098 H   0  0  0  0  0  0  0  0  0  0  0  0
  1  3  1  0
  2  7  2  0
  3  4  2  0
  3  2  1  0
  4  5  1  0
  5  6  2  0
  6  8  1  0
  7  6  1  0
  8 13  1  0
  8  9  1  0
  9 10  1  0
 10 11  1  0
 12 11  1  0
 13 12  1  0
 14 23  1  0
 14  1  1  0
 15 14  2  0
 16 17  2  0
 16 15  1  0
 17 22  1  0
 18 19  2  0
 18 17  1  0
 19 20  1  0
 20 21  2  0
 22 21  1  0
 22 23  2  0
  2 24  1  0
  4 25  1  0
  9 26  1  0
  9 27  1  0
 10 28  1  0
 10 29  1  0
 11 30  1  0
 12 31  1  0
 12 32  1  0
 13 33  1  0
 13 34  1  0
 15 35  1  0
 16 36  1  0
 19 37  1  0
 20 38  1  0
 21 39  1  0
 23 40  1  0
M  ISO  8  24  14  25  14  26  13  27  13  28  13  29  13  30   5  31  13
M  ISO  8  32  13  33  13  34  13  35  14  36  14  37  14  38  14  39  14
M  ISO  1  40  14
M  END
>  <minimizedAffinity>  (1) 
-7.18291664

>  <minimizedRMSD>  (1) 
0.426418692

$$$$
