
     RDKit          3D

 36 39  0  0  0  0  0  0  0  0999 V2000
   44.2110   35.7940   42.3190 O   0  0  0  0  0  0  0  0  0  0  0  0
   43.4670   35.2740   41.2680 C   0  0  0  0  0  0  0  0  0  0  0  0
   43.9310   34.6070   40.1580 C   0  0  0  0  0  0  0  0  0  0  0  0
   43.0480   34.1580   39.2120 C   0  0  0  0  0  0  0  0  0  0  0  0
   41.6860   34.3480   39.3180 C   0  0  0  0  0  0  0  0  0  0  0  0
   40.8750   33.8810   38.3520 N   0  0  0  0  0  0  0  0  0  0  0  0
   39.5470   34.0490   38.4260 C   0  0  0  0  0  0  0  0  0  0  0  0
   39.0430   34.7120   39.5200 C   0  0  0  0  0  0  0  0  0  0  0  0
   39.8680   35.2020   40.5310 C   0  0  0  0  0  0  0  0  0  0  0  0
   41.2270   35.0210   40.4390 C   0  0  0  0  0  0  0  0  0  0  0  0
   42.0890   35.4930   41.4240 C   0  0  0  0  0  0  0  0  0  0  0  0
   44.5590   35.5690   44.7480 C   0  0  0  0  0  0  0  0  0  0  0  0
   44.6140   35.0810   43.4300 C   0  0  0  0  0  0  0  0  0  0  0  0
   45.1110   33.7860   43.2300 C   0  0  0  0  0  0  0  0  0  0  0  0
   45.5070   33.0890   44.3290 N   0  0  0  0  0  0  0  0  0  0  0  0
   45.4430   33.5800   45.5730 C   0  0  0  0  0  0  0  0  0  0  0  0
   44.9650   34.8260   45.7720 N   0  0  0  0  0  0  0  0  0  0  0  0
   47.7040   31.8960   45.4570 F   0  0  0  0  0  0  0  0  0  0  0  0
   46.9930   31.9770   46.6060 C   0  0  0  0  0  0  0  0  0  0  0  0
   45.8820   32.7850   46.7100 C   0  0  0  0  0  0  0  0  0  0  0  0
   45.1860   32.8400   47.8990 C   0  0  0  0  0  0  0  0  0  0  0  0
   45.6440   32.0590   48.9640 C   0  0  0  0  0  0  0  0  0  0  0  0
   46.7700   31.2330   48.8760 C   0  0  0  0  0  0  0  0  0  0  0  0
   47.4320   31.2150   47.6670 C   0  0  0  0  0  0  0  0  0  0  0  0
   45.0098   34.4344   40.0302 H   0  0  0  0  0  0  0  0  0  0  0  0
   43.4405   33.6251   38.3334 H   0  0  0  0  0  0  0  0  0  0  0  0
   38.8819   33.6686   37.6367 H   0  0  0  0  0  0  0  0  0  0  0  0
   37.9560   34.8602   39.5998 H   0  0  0  0  0  0  0  0  0  0  0  0
   39.4352   35.7286   41.3944 H   0  0  0  0  0  0  0  0  0  0  0  0
   41.6999   36.0253   42.3044 H   0  0  0  0  0  0  0  0  0  0  0  0
   44.1736   36.5823   44.9341 H   0  0  0  0  0  0  0  0  0  0  0  0
   45.1783   33.3497   42.2225 H   0  0  0  0  0  0  0  0  0  0  0  0
   44.2972   33.4792   48.0062 H   0  0  0  0  0  0  0  0  0  0  0  0
   45.0935   32.0955   49.9157 H   0  0  0  0  0  0  0  0  0  0  0  0
   47.1101   30.6279   49.7294 H   0  0  0  0  0  0  0  0  0  0  0  0
   48.3242   30.5828   47.5473 H   0  0  0  0  0  0  0  0  0  0  0  0
  1 13  1  0
  2 11  1  0
  2  1  1  0
  3  2  2  0
  4  5  2  0
  4  3  1  0
  5 10  1  0
  6  7  2  0
  6  5  1  0
  7  8  1  0
  8  9  2  0
 10  9  1  0
 10 11  2  0
 12 17  2  0
 13 12  1  0
 14 13  2  0
 14 15  1  0
 15 16  2  0
 16 17  1  0
 16 20  1  0
 18 19  1  0
 19 20  2  0
 19 24  1  0
 20 21  1  0
 21 22  2  0
 23 22  1  0
 24 23  2  0
  3 25  1  0
  4 26  1  0
  7 27  1  0
  8 28  1  0
  9 29  1  0
 11 30  1  0
 12 31  1  0
 14 32  1  0
 21 33  1  0
 22 34  1  0
 23 35  1  0
 24 36  1  0
M  ISO  8  25  14  26  14  27  14  28  14  29  14  30  14  31  14  32  14
M  ISO  4  33  14  34  14  35  14  36  14
M  END
>  <minimizedAffinity>  (1) 
-7.10212088

>  <minimizedRMSD>  (1) 
1.29383087

$$$$
