
     RDKit          3D

 36 39  0  0  0  0  0  0  0  0999 V2000
   44.6490   35.6790   42.5500 O   0  0  0  0  0  0  0  0  0  0  0  0
   43.8340   35.2070   41.5230 C   0  0  0  0  0  0  0  0  0  0  0  0
   44.2390   34.4560   40.4420 C   0  0  0  0  0  0  0  0  0  0  0  0
   43.3100   34.0610   39.5050 C   0  0  0  0  0  0  0  0  0  0  0  0
   41.9780   34.3860   39.5990 C   0  0  0  0  0  0  0  0  0  0  0  0
   41.1340   33.9680   38.6510 N   0  0  0  0  0  0  0  0  0  0  0  0
   39.8170   34.2700   38.7140 C   0  0  0  0  0  0  0  0  0  0  0  0
   39.3910   35.0120   39.7760 C   0  0  0  0  0  0  0  0  0  0  0  0
   40.2500   35.4600   40.7760 C   0  0  0  0  0  0  0  0  0  0  0  0
   41.5860   35.1430   40.6950 C   0  0  0  0  0  0  0  0  0  0  0  0
   42.4970   35.5620   41.6650 C   0  0  0  0  0  0  0  0  0  0  0  0
   44.5710   35.3600   44.9930 C   0  0  0  0  0  0  0  0  0  0  0  0
   44.9530   34.9870   43.6930 C   0  0  0  0  0  0  0  0  0  0  0  0
   45.7030   33.8190   43.5600 C   0  0  0  0  0  0  0  0  0  0  0  0
   46.0160   33.1190   44.6810 N   0  0  0  0  0  0  0  0  0  0  0  0
   45.6370   33.4990   45.9070 C   0  0  0  0  0  0  0  0  0  0  0  0
   44.9110   34.6290   46.0490 N   0  0  0  0  0  0  0  0  0  0  0  0
   45.9910   32.7210   47.0900 C   0  0  0  0  0  0  0  0  0  0  0  0
   47.3120   32.3980   47.3260 C   0  0  0  0  0  0  0  0  0  0  0  0
   47.6370   31.6620   48.4470 C   0  0  0  0  0  0  0  0  0  0  0  0
   46.6270   31.2700   49.3000 C   0  0  0  0  0  0  0  0  0  0  0  0
   45.2750   31.5690   49.1080 C   0  0  0  0  0  0  0  0  0  0  0  0
   45.0140   32.3070   47.9720 C   0  0  0  0  0  0  0  0  0  0  0  0
   45.2960   34.1738   40.3278 H   0  0  0  0  0  0  0  0  0  0  0  0
   43.6478   33.4613   38.6469 H   0  0  0  0  0  0  0  0  0  0  0  0
   39.1158   33.9298   37.9377 H   0  0  0  0  0  0  0  0  0  0  0  0
   38.3233   35.2674   39.8455 H   0  0  0  0  0  0  0  0  0  0  0  0
   39.8668   36.0573   41.6165 H   0  0  0  0  0  0  0  0  0  0  0  0
   42.1642   36.1614   42.5252 H   0  0  0  0  0  0  0  0  0  0  0  0
   43.9787   36.2754   45.1391 H   0  0  0  0  0  0  0  0  0  0  0  0
   46.0336   33.4725   42.5697 H   0  0  0  0  0  0  0  0  0  0  0  0
   48.0972   32.7238   46.6280 H   0  0  0  0  0  0  0  0  0  0  0  0
   48.6828   31.3929   48.6564 H   0  0  0  0  0  0  0  0  0  0  0  0
   46.9030   30.6841   50.1891 H   0  0  0  0  0  0  0  0  0  0  0  0
   44.4869   31.2438   49.8030 H   0  0  0  0  0  0  0  0  0  0  0  0
   43.9702   32.5802   47.7577 H   0  0  0  0  0  0  0  0  0  0  0  0
  1 13  1  0
  2 11  1  0
  2  1  1  0
  3  2  2  0
  4  5  2  0
  4  3  1  0
  5 10  1  0
  6  7  2  0
  6  5  1  0
  7  8  1  0
  8  9  2  0
 10  9  1  0
 10 11  2  0
 12 17  2  0
 13 12  1  0
 14 13  2  0
 14 15  1  0
 15 16  2  0
 16 17  1  0
 16 18  1  0
 18 19  2  0
 18 23  1  0
 19 20  1  0
 20 21  2  0
 22 21  1  0
 23 22  2  0
  3 24  1  0
  4 25  1  0
  7 26  1  0
  8 27  1  0
  9 28  1  0
 11 29  1  0
 12 30  1  0
 14 31  1  0
 19 32  1  0
 20 33  1  0
 21 34  1  0
 22 35  1  0
 23 36  1  0
M  ISO  8  24  14  25  14  26  14  27  14  28  14  29  14  30  14  31  14
M  ISO  5  32  14  33  14  34  14  35  14  36  14
M  END
>  <minimizedAffinity>  (1) 
-7.04638386

>  <minimizedRMSD>  (1) 
0.82152909

$$$$
