
     RDKit          3D

 35 38  0  0  0  0  0  0  0  0999 V2000
   44.7060   35.7050   42.5130 O   0  0  0  0  0  0  0  0  0  0  0  0
   43.8950   35.2130   41.4920 C   0  0  0  0  0  0  0  0  0  0  0  0
   44.2790   34.4350   40.4200 C   0  0  0  0  0  0  0  0  0  0  0  0
   43.3400   34.0330   39.4990 C   0  0  0  0  0  0  0  0  0  0  0  0
   42.0040   34.3840   39.6060 C   0  0  0  0  0  0  0  0  0  0  0  0
   41.1550   33.9440   38.6540 N   0  0  0  0  0  0  0  0  0  0  0  0
   39.8470   34.2730   38.7370 C   0  0  0  0  0  0  0  0  0  0  0  0
   39.4200   35.0470   39.7890 C   0  0  0  0  0  0  0  0  0  0  0  0
   40.3030   35.5010   40.7730 C   0  0  0  0  0  0  0  0  0  0  0  0
   41.6460   35.1620   40.6860 C   0  0  0  0  0  0  0  0  0  0  0  0
   42.5620   35.5840   41.6320 C   0  0  0  0  0  0  0  0  0  0  0  0
   44.5570   35.3650   44.9650 C   0  0  0  0  0  0  0  0  0  0  0  0
   44.9990   35.0210   43.6770 C   0  0  0  0  0  0  0  0  0  0  0  0
   45.8100   33.8790   43.5660 C   0  0  0  0  0  0  0  0  0  0  0  0
   46.1030   33.1980   44.7070 N   0  0  0  0  0  0  0  0  0  0  0  0
   45.6640   33.5570   45.9200 C   0  0  0  0  0  0  0  0  0  0  0  0
   44.8850   34.6540   46.0260 N   0  0  0  0  0  0  0  0  0  0  0  0
   46.0220   32.7760   47.1000 C   0  0  0  0  0  0  0  0  0  0  0  0
   45.0130   32.3710   47.9680 C   0  0  0  0  0  0  0  0  0  0  0  0
   45.4140   31.6350   49.0640 C   0  0  0  0  0  0  0  0  0  0  0  0
   46.7510   31.3360   49.2570 C   0  0  0  0  0  0  0  0  0  0  0  0
   47.7290   31.7550   48.3710 C   0  0  0  0  0  0  0  0  0  0  0  0
   47.3200   32.4780   47.2970 N   0  0  0  0  0  0  0  0  0  0  0  0
   45.3314   34.1374   40.3021 H   0  0  0  0  0  0  0  0  0  0  0  0
   43.6603   33.4122   38.6493 H   0  0  0  0  0  0  0  0  0  0  0  0
   39.1347   33.9264   37.9738 H   0  0  0  0  0  0  0  0  0  0  0  0
   38.3558   35.3163   39.8586 H   0  0  0  0  0  0  0  0  0  0  0  0
   39.9378   36.1194   41.6062 H   0  0  0  0  0  0  0  0  0  0  0  0
   42.2412   36.2037   42.4823 H   0  0  0  0  0  0  0  0  0  0  0  0
   43.9194   36.2523   45.0922 H   0  0  0  0  0  0  0  0  0  0  0  0
   46.1947   33.5470   42.5904 H   0  0  0  0  0  0  0  0  0  0  0  0
   43.9570   32.6229   47.7908 H   0  0  0  0  0  0  0  0  0  0  0  0
   44.6655   31.2835   49.7894 H   0  0  0  0  0  0  0  0  0  0  0  0
   47.0453   30.7488   50.1393 H   0  0  0  0  0  0  0  0  0  0  0  0
   48.7902   31.5129   48.5301 H   0  0  0  0  0  0  0  0  0  0  0  0
  1 13  1  0
  2 11  1  0
  2  1  1  0
  3  2  2  0
  4  5  2  0
  4  3  1  0
  5 10  1  0
  6  7  2  0
  6  5  1  0
  7  8  1  0
  8  9  2  0
 10  9  1  0
 10 11  2  0
 12 17  2  0
 13 12  1  0
 14 13  2  0
 14 15  1  0
 15 16  2  0
 16 17  1  0
 16 18  1  0
 18 23  1  0
 18 19  2  0
 19 20  1  0
 20 21  2  0
 22 21  1  0
 23 22  2  0
  3 24  1  0
  4 25  1  0
  7 26  1  0
  8 27  1  0
  9 28  1  0
 11 29  1  0
 12 30  1  0
 14 31  1  0
 19 32  1  0
 20 33  1  0
 21 34  1  0
 22 35  1  0
M  ISO  8  24  14  25  14  26  14  27  14  28  14  29  14  30  14  31  14
M  ISO  4  32  14  33  14  34  14  35  14
M  END
>  <minimizedAffinity>  (1) 
-6.92135668

>  <minimizedRMSD>  (1) 
0.80256784

$$$$
