
     RDKit          3D

 40 44  0  0  0  0  0  0  0  0999 V2000
   44.8850   34.9310   44.9340 C   0  0  0  0  0  0  0  0  0  0  0  0
   45.5400   34.7890   43.7030 C   0  0  0  0  0  0  0  0  0  0  0  0
   46.5970   33.8430   43.6300 C   0  0  0  0  0  0  0  0  0  0  0  0
   46.9060   33.1440   44.7340 N   0  0  0  0  0  0  0  0  0  0  0  0
   46.2560   33.3030   45.9110 C   0  0  0  0  0  0  0  0  0  0  0  0
   45.2450   34.2080   45.9790 N   0  0  0  0  0  0  0  0  0  0  0  0
   46.5490   32.5720   47.1400 C   0  0  0  0  0  0  0  0  0  0  0  0
   45.6000   32.4320   48.1460 C   0  0  0  0  0  0  0  0  0  0  0  0
   46.1640   31.6980   49.1720 C   0  0  0  0  0  0  0  0  0  0  0  0
   47.4270   31.4140   48.7690 N   0  0  0  0  0  0  0  0  0  0  0  0
   47.6410   31.9440   47.5510 N   0  0  0  0  0  0  0  0  0  0  0  0
   48.4260   30.6690   49.4860 C   0  0  0  0  0  0  0  0  0  0  0  0
   49.6900   30.3200   48.7700 C   0  0  0  0  0  0  0  0  0  0  0  0
   49.7190   31.4110   49.8290 C   0  0  0  0  0  0  0  0  0  0  0  0
   45.2440   35.4940   42.5490 O   0  0  0  0  0  0  0  0  0  0  0  0
   44.3270   35.0980   41.5940 C   0  0  0  0  0  0  0  0  0  0  0  0
   44.5480   34.2440   40.5430 C   0  0  0  0  0  0  0  0  0  0  0  0
   43.5220   33.9490   39.6760 C   0  0  0  0  0  0  0  0  0  0  0  0
   42.2470   34.4900   39.8200 C   0  0  0  0  0  0  0  0  0  0  0  0
   41.3030   34.1590   38.9400 N   0  0  0  0  0  0  0  0  0  0  0  0
   40.0480   34.6670   39.0490 C   0  0  0  0  0  0  0  0  0  0  0  0
   39.8040   35.5250   40.0930 C   0  0  0  0  0  0  0  0  0  0  0  0
   40.7910   35.8740   41.0180 C   0  0  0  0  0  0  0  0  0  0  0  0
   42.0560   35.3360   40.8730 C   0  0  0  0  0  0  0  0  0  0  0  0
   43.0710   35.6570   41.7720 C   0  0  0  0  0  0  0  0  0  0  0  0
   44.0611   35.6534   45.0309 H   0  0  0  0  0  0  0  0  0  0  0  0
   47.1492   33.6868   42.6916 H   0  0  0  0  0  0  0  0  0  0  0  0
   44.5769   32.8357   48.1284 H   0  0  0  0  0  0  0  0  0  0  0  0
   45.6873   31.4050   50.1190 H   0  0  0  0  0  0  0  0  0  0  0  0
   47.6791   30.0921   50.0510 H   0  0  0  0  0  0  0  0  0  0  0  0
   50.1808   29.3550   48.9648 H   0  0  0  0  0  0  0  0  0  0  0  0
   49.9877   30.2623   47.7126 H   0  0  0  0  0  0  0  0  0  0  0  0
   49.8477   32.4635   49.5363 H   0  0  0  0  0  0  0  0  0  0  0  0
   50.2964   31.6008   50.7459 H   0  0  0  0  0  0  0  0  0  0  0  0
   45.5421   33.7970   40.3945 H   0  0  0  0  0  0  0  0  0  0  0  0
   43.7154   33.2615   38.8394 H   0  0  0  0  0  0  0  0  0  0  0  0
   39.2589   34.4018   38.3300 H   0  0  0  0  0  0  0  0  0  0  0  0
   38.7966   35.9523   40.2048 H   0  0  0  0  0  0  0  0  0  0  0  0
   40.5660   36.5632   41.8453 H   0  0  0  0  0  0  0  0  0  0  0  0
   42.8787   36.3433   42.6099 H   0  0  0  0  0  0  0  0  0  0  0  0
  1  6  2  0
  2  1  1  0
  3  2  2  0
  3  4  1  0
  4  5  2  0
  5  6  1  0
  5  7  1  0
  7 11  2  0
  7  8  1  0
  8  9  2  0
 10  9  1  0
 10 12  1  0
 11 10  1  0
 12 14  1  0
 13 12  1  0
 13 14  1  0
 15  2  1  0
 16 25  1  0
 16 15  1  0
 17 16  2  0
 18 19  2  0
 18 17  1  0
 19 24  1  0
 20 21  2  0
 20 19  1  0
 21 22  1  0
 22 23  2  0
 24 23  1  0
 24 25  2  0
  1 26  1  0
  3 27  1  0
  8 28  1  0
  9 29  1  0
 12 30  1  0
 13 31  1  0
 13 32  1  0
 14 33  1  0
 14 34  1  0
 17 35  1  0
 18 36  1  0
 21 37  1  0
 22 38  1  0
 23 39  1  0
 25 40  1  0
M  ISO  8  26  14  27  14  28  14  29  14  30  13  31  13  32  13  33  13
M  ISO  7  34  13  35  14  36  14  37  14  38  14  39  14  40  14
M  END
>  <minimizedAffinity>  (1) 
-6.98549271

>  <minimizedRMSD>  (1) 
0.634303689

$$$$
