
     RDKit          3D

 36 39  0  0  0  0  0  0  0  0999 V2000
   45.1300   35.5500   42.4940 O   0  0  0  0  0  0  0  0  0  0  0  0
   44.2170   35.1280   41.5340 C   0  0  0  0  0  0  0  0  0  0  0  0
   44.4720   34.2880   40.4740 C   0  0  0  0  0  0  0  0  0  0  0  0
   43.4610   33.9640   39.6110 C   0  0  0  0  0  0  0  0  0  0  0  0
   42.1730   34.4400   39.7450 C   0  0  0  0  0  0  0  0  0  0  0  0
   41.2310   34.0840   38.8670 N   0  0  0  0  0  0  0  0  0  0  0  0
   39.9610   34.5470   38.9890 C   0  0  0  0  0  0  0  0  0  0  0  0
   39.6750   35.3930   40.0470 C   0  0  0  0  0  0  0  0  0  0  0  0
   40.6600   35.7650   40.9650 C   0  0  0  0  0  0  0  0  0  0  0  0
   41.9420   35.2750   40.8090 C   0  0  0  0  0  0  0  0  0  0  0  0
   42.9420   35.6390   41.7230 C   0  0  0  0  0  0  0  0  0  0  0  0
   44.8120   35.0110   44.8730 C   0  0  0  0  0  0  0  0  0  0  0  0
   45.4480   34.8540   43.6440 C   0  0  0  0  0  0  0  0  0  0  0  0
   46.4950   33.9120   43.5700 C   0  0  0  0  0  0  0  0  0  0  0  0
   46.8160   33.2270   44.6790 N   0  0  0  0  0  0  0  0  0  0  0  0
   46.1810   33.3980   45.8620 C   0  0  0  0  0  0  0  0  0  0  0  0
   45.1730   34.3050   45.9340 N   0  0  0  0  0  0  0  0  0  0  0  0
   46.5030   32.6750   47.0750 C   0  0  0  0  0  0  0  0  0  0  0  0
   45.5370   32.4550   48.0650 C   0  0  0  0  0  0  0  0  0  0  0  0
   46.1410   31.7420   49.0960 C   0  0  0  0  0  0  0  0  0  0  0  0
   47.4200   31.5540   48.7150 N   0  0  0  0  0  0  0  0  0  0  0  0
   47.6070   32.1130   47.5210 N   0  0  0  0  0  0  0  0  0  0  0  0
   48.4170   30.8490   49.5000 C   0  0  0  0  0  0  0  0  0  0  0  0
   45.4820   33.8798   40.3217 H   0  0  0  0  0  0  0  0  0  0  0  0
   43.6859   33.2917   38.7699 H   0  0  0  0  0  0  0  0  0  0  0  0
   39.1817   34.2585   38.2683 H   0  0  0  0  0  0  0  0  0  0  0  0
   38.6522   35.7797   40.1670 H   0  0  0  0  0  0  0  0  0  0  0  0
   40.4181   36.4386   41.8003 H   0  0  0  0  0  0  0  0  0  0  0  0
   42.7209   36.3107   42.5656 H   0  0  0  0  0  0  0  0  0  0  0  0
   43.9913   35.7377   44.9647 H   0  0  0  0  0  0  0  0  0  0  0  0
   47.0352   33.7428   42.6269 H   0  0  0  0  0  0  0  0  0  0  0  0
   44.4886   32.7865   48.0332 H   0  0  0  0  0  0  0  0  0  0  0  0
   45.6709   31.4016   50.0304 H   0  0  0  0  0  0  0  0  0  0  0  0
   48.2109   30.9947   50.5707 H   0  0  0  0  0  0  0  0  0  0  0  0
   48.3792   29.7757   49.2621 H   0  0  0  0  0  0  0  0  0  0  0  0
   49.4163   31.2424   49.2621 H   0  0  0  0  0  0  0  0  0  0  0  0
  1 13  1  0
  2 11  1  0
  2  1  1  0
  3  2  2  0
  4  5  2  0
  4  3  1  0
  5 10  1  0
  6  7  2  0
  6  5  1  0
  7  8  1  0
  8  9  2  0
 10  9  1  0
 10 11  2  0
 12 17  2  0
 13 12  1  0
 14 13  2  0
 14 15  1  0
 15 16  2  0
 16 17  1  0
 16 18  1  0
 18 22  2  0
 18 19  1  0
 19 20  2  0
 21 20  1  0
 21 23  1  0
 22 21  1  0
  3 24  1  0
  4 25  1  0
  7 26  1  0
  8 27  1  0
  9 28  1  0
 11 29  1  0
 12 30  1  0
 14 31  1  0
 19 32  1  0
 20 33  1  0
 23 34  1  0
 23 35  1  0
 23 36  1  0
M  ISO  8  24  14  25  14  26  14  27  14  28  14  29  14  30  14  31  14
M  ISO  5  32  14  33  14  34   8  35   8  36   8
M  END
>  <minimizedAffinity>  (1) 
-6.75484943

>  <minimizedRMSD>  (1) 
0.564292669

$$$$
