
     RDKit          3D

 32 34  0  0  0  0  0  0  0  0999 V2000
   46.7360   34.6710   42.1000 C   0  0  0  0  0  0  0  0  0  0  0  0
   47.9580   35.2600   41.9280 C   0  0  0  0  0  0  0  0  0  0  0  0
   48.6670   35.2160   40.7330 C   0  0  0  0  0  0  0  0  0  0  0  0
   48.0400   34.5220   39.7070 C   0  0  0  0  0  0  0  0  0  0  0  0
   46.8030   33.9180   39.8600 C   0  0  0  0  0  0  0  0  0  0  0  0
   46.1990   34.0220   41.0640 N   0  0  0  0  0  0  0  0  0  0  0  0
   45.5990   33.9490   45.5110 C   0  0  0  0  0  0  0  0  0  0  0  0
   44.7050   34.9910   45.7690 C   0  0  0  0  0  0  0  0  0  0  0  0
   44.5010   35.9330   44.7610 C   0  0  0  0  0  0  0  0  0  0  0  0
   45.1830   35.7900   43.5820 N   0  0  0  0  0  0  0  0  0  0  0  0
   46.0400   34.7590   43.3850 C   0  0  0  0  0  0  0  0  0  0  0  0
   46.2500   33.8510   44.3290 N   0  0  0  0  0  0  0  0  0  0  0  0
   46.8670   32.7290   37.7190 C   0  0  0  0  0  0  0  0  0  0  0  0
   46.1510   33.1970   38.7920 C   0  0  0  0  0  0  0  0  0  0  0  0
   44.7950   32.9430   38.7950 C   0  0  0  0  0  0  0  0  0  0  0  0
   44.1220   32.2580   37.8020 C   0  0  0  0  0  0  0  0  0  0  0  0
   44.8390   31.7870   36.7210 C   0  0  0  0  0  0  0  0  0  0  0  0
   46.1900   32.0340   36.7090 C   0  0  0  0  0  0  0  0  0  0  0  0
   48.5730   32.9600   37.5560 S   0  0  0  0  0  0  0  0  0  0  0  0
   49.3750   31.7350   37.9260 O   0  0  0  0  0  0  0  0  0  0  0  0
   48.9240   33.2280   36.0980 O   0  0  0  0  0  0  0  0  0  0  0  0
   48.4030   35.7963   42.7791 H   0  0  0  0  0  0  0  0  0  0  0  0
   49.6498   35.6945   40.6098 H   0  0  0  0  0  0  0  0  0  0  0  0
   48.5461   34.4489   38.7331 H   0  0  0  0  0  0  0  0  0  0  0  0
   45.7779   33.1903   46.2871 H   0  0  0  0  0  0  0  0  0  0  0  0
   44.1805   35.0658   46.7330 H   0  0  0  0  0  0  0  0  0  0  0  0
   43.8069   36.7732   44.9098 H   0  0  0  0  0  0  0  0  0  0  0  0
   44.2080   33.3122   39.6489 H   0  0  0  0  0  0  0  0  0  0  0  0
   43.0369   32.0914   37.8715 H   0  0  0  0  0  0  0  0  0  0  0  0
   44.3493   31.2372   35.9038 H   0  0  0  0  0  0  0  0  0  0  0  0
   46.7756   31.6636   35.8546 H   0  0  0  0  0  0  0  0  0  0  0  0
   48.8778   34.0012   38.3927 H   0  0  0  0  0  0  0  0  0  0  0  0
  1 11  1  0
  2  1  2  0
  3  2  1  0
  4  5  1  0
  4  3  2  0
  5  6  2  0
  6  1  1  0
  7  8  2  0
  9  8  1  0
 10  9  2  0
 11 10  1  0
 11 12  2  0
 12  7  1  0
 13 14  2  0
 14 15  1  0
 14  5  1  0
 16 15  2  0
 17 16  1  0
 18 17  2  0
 18 13  1  0
 19 13  1  0
 19 20  2  0
 21 19  2  0
  2 22  1  0
  3 23  1  0
  4 24  1  0
  7 25  1  0
  8 26  1  0
  9 27  1  0
 15 28  1  0
 16 29  1  0
 17 30  1  0
 18 31  1  0
 19 32  1  0
M  ISO  8  22  14  23  14  24  14  25  14  26  14  27  14  28  14  29  14
M  ISO  3  30  14  31  14  32  11
M  END
>  <minimizedAffinity>  (1) 
-5.5058217

>  <minimizedRMSD>  (1) 
0.535092652

$$$$
