
     RDKit          3D

 23 24  0  0  0  0  0  0  0  0999 V2000
   46.9050   34.8200   42.1290 C   0  0  0  0  0  0  0  0  0  0  0  0
   48.1200   35.4630   42.0420 C   0  0  0  0  0  0  0  0  0  0  0  0
   48.9230   35.4920   40.9090 C   0  0  0  0  0  0  0  0  0  0  0  0
   48.3960   34.8000   39.8260 C   0  0  0  0  0  0  0  0  0  0  0  0
   47.1740   34.1470   39.8980 C   0  0  0  0  0  0  0  0  0  0  0  0
   46.4380   34.1630   41.0520 N   0  0  0  0  0  0  0  0  0  0  0  0
   47.3430   33.7170   37.4560 C   0  0  0  0  0  0  0  0  0  0  0  0
   48.2610   34.4380   36.9800 O   0  0  0  0  0  0  0  0  0  0  0  0
   46.7440   33.4750   38.7230 N   0  0  0  0  0  0  0  0  0  0  0  0
   45.6170   33.9380   45.4460 C   0  0  0  0  0  0  0  0  0  0  0  0
   44.6850   34.9460   45.7050 C   0  0  0  0  0  0  0  0  0  0  0  0
   44.5140   35.9290   44.7160 C   0  0  0  0  0  0  0  0  0  0  0  0
   45.2590   35.8510   43.5610 N   0  0  0  0  0  0  0  0  0  0  0  0
   46.1460   34.8530   43.3660 C   0  0  0  0  0  0  0  0  0  0  0  0
   46.3170   33.9190   44.2940 N   0  0  0  0  0  0  0  0  0  0  0  0
   48.4811   35.9927   42.9359 H   0  0  0  0  0  0  0  0  0  0  0  0
   49.8895   36.0159   40.8726 H   0  0  0  0  0  0  0  0  0  0  0  0
   48.9638   34.7688   38.8844 H   0  0  0  0  0  0  0  0  0  0  0  0
   46.8743   33.1036   36.6724 H   0  0  0  0  0  0  0  0  0  0  0  0
   45.9757   32.7923   38.7904 H   0  0  0  0  0  0  0  0  0  0  0  0
   45.7822   33.1479   46.1933 H   0  0  0  0  0  0  0  0  0  0  0  0
   44.1101   34.9690   46.6425 H   0  0  0  0  0  0  0  0  0  0  0  0
   43.7954   36.7489   44.8624 H   0  0  0  0  0  0  0  0  0  0  0  0
  1 14  1  0
  2  1  2  0
  3  2  1  0
  4  5  1  0
  4  3  2  0
  5  6  2  0
  6  1  1  0
  7  9  1  0
  8  7  2  0
  9  5  1  0
 10 11  2  0
 12 11  1  0
 13 12  2  0
 14 13  1  0
 14 15  2  0
 15 10  1  0
  2 16  1  0
  3 17  1  0
  4 18  1  0
  7 19  1  0
  9 20  1  0
 10 21  1  0
 11 22  1  0
 12 23  1  0
M  ISO  7  16  14  17  14  18  14  19   6  21  14  22  14  23  14
M  END
>  <minimizedAffinity>  (1) 
-5.50225925

>  <minimizedRMSD>  (1) 
0.227341771

$$$$
