
     RDKit          3D

 27 29  0  0  0  0  0  0  0  0999 V2000
   46.8150   34.7190   42.0110 C   0  0  0  0  0  0  0  0  0  0  0  0
   48.0140   35.3540   41.8380 C   0  0  0  0  0  0  0  0  0  0  0  0
   48.7690   35.3180   40.6750 C   0  0  0  0  0  0  0  0  0  0  0  0
   48.2000   34.5590   39.6470 C   0  0  0  0  0  0  0  0  0  0  0  0
   46.9850   33.9110   39.8050 C   0  0  0  0  0  0  0  0  0  0  0  0
   46.3030   33.9950   40.9840 N   0  0  0  0  0  0  0  0  0  0  0  0
   45.6020   33.9470   45.3770 C   0  0  0  0  0  0  0  0  0  0  0  0
   44.7140   35.0130   45.6370 C   0  0  0  0  0  0  0  0  0  0  0  0
   44.5480   35.9910   44.6380 C   0  0  0  0  0  0  0  0  0  0  0  0
   45.2550   35.8560   43.4660 N   0  0  0  0  0  0  0  0  0  0  0  0
   46.0910   34.8130   43.2700 C   0  0  0  0  0  0  0  0  0  0  0  0
   46.2590   33.8830   44.2020 N   0  0  0  0  0  0  0  0  0  0  0  0
   46.4210   33.1330   38.7260 C   0  0  0  0  0  0  0  0  0  0  0  0
   46.7780   33.3440   37.4260 C   0  0  0  0  0  0  0  0  0  0  0  0
   46.2280   32.5920   36.4020 C   0  0  0  0  0  0  0  0  0  0  0  0
   45.3120   31.6170   36.6660 N   0  0  0  0  0  0  0  0  0  0  0  0
   44.9750   31.4280   37.9740 C   0  0  0  0  0  0  0  0  0  0  0  0
   45.5180   32.1720   38.9820 N   0  0  0  0  0  0  0  0  0  0  0  0
   48.4087   35.9363   42.6837 H   0  0  0  0  0  0  0  0  0  0  0  0
   49.7312   35.8407   40.5702 H   0  0  0  0  0  0  0  0  0  0  0  0
   48.7311   34.4741   38.6874 H   0  0  0  0  0  0  0  0  0  0  0  0
   45.7583   33.1661   46.1358 H   0  0  0  0  0  0  0  0  0  0  0  0
   44.1688   35.0775   46.5902 H   0  0  0  0  0  0  0  0  0  0  0  0
   43.8690   36.8428   44.7911 H   0  0  0  0  0  0  0  0  0  0  0  0
   47.5153   34.1248   37.1876 H   0  0  0  0  0  0  0  0  0  0  0  0
   46.5336   32.7833   35.3628 H   0  0  0  0  0  0  0  0  0  0  0  0
   44.2402   30.6491   38.2257 H   0  0  0  0  0  0  0  0  0  0  0  0
  1 11  1  0
  2  1  2  0
  3  2  1  0
  4  5  1  0
  4  3  2  0
  5  6  2  0
  6  1  1  0
  7  8  2  0
  9  8  1  0
 10  9  2  0
 11 10  1  0
 11 12  2  0
 12  7  1  0
 13 18  1  0
 13  5  1  0
 14 13  2  0
 15 16  2  0
 15 14  1  0
 16 17  1  0
 17 18  2  0
  2 19  1  0
  3 20  1  0
  4 21  1  0
  7 22  1  0
  8 23  1  0
  9 24  1  0
 14 25  1  0
 15 26  1  0
 17 27  1  0
M  ISO  8  19  14  20  14  21  14  22  14  23  14  24  14  25  14  26  14
M  ISO  1  27  14
M  END
>  <minimizedAffinity>  (1) 
-5.29850864

>  <minimizedRMSD>  (1) 
0.389596641

$$$$
