
     RDKit          3D

 11 11  0  0  0  0  0  0  0  0999 V2000
   44.5160   36.0410   44.5460 C   0  0  0  0  0  0  0  0  0  0  0  0
   45.1740   36.0650   43.3040 C   0  0  0  0  0  0  0  0  0  0  0  0
   46.0790   35.0380   43.0170 C   0  0  0  0  0  0  0  0  0  0  0  0
   46.2780   34.0700   43.9490 N   0  0  0  0  0  0  0  0  0  0  0  0
   45.6270   34.0760   45.1380 C   0  0  0  0  0  0  0  0  0  0  0  0
   44.7480   35.0640   45.4310 N   0  0  0  0  0  0  0  0  0  0  0  0
   46.8050   34.9210   41.8380 O   0  0  0  0  0  0  0  0  0  0  0  0
   43.7992   36.8376   44.7944 H   0  0  0  0  0  0  0  0  0  0  0  0
   44.9825   36.8690   42.5781 H   0  0  0  0  0  0  0  0  0  0  0  0
   45.8134   33.2748   45.8683 H   0  0  0  0  0  0  0  0  0  0  0  0
   47.4271   34.1611   41.7131 H   0  0  0  0  0  0  0  0  0  0  0  0
  1  6  2  0
  2  1  1  0
  3  2  2  0
  3  4  1  0
  4  5  2  0
  5  6  1  0
  7  3  1  0
  1  8  1  0
  2  9  1  0
  5 10  1  0
  7 11  1  0
M  ISO  4   8  14   9  14  10  14  11   3
M  END
>  <minimizedAffinity>  (1) 
-2.93952441

>  <minimizedRMSD>  (1) 
0.616694868

$$$$
