
     RDKit          3D

 20 21  0  0  0  0  0  0  0  0999 V2000
   46.8340   34.7350   42.0910 C   0  0  0  0  0  0  0  0  0  0  0  0
   48.0290   35.4180   41.9260 C   0  0  0  0  0  0  0  0  0  0  0  0
   48.7840   35.4000   40.7760 C   0  0  0  0  0  0  0  0  0  0  0  0
   48.2540   34.6210   39.7430 C   0  0  0  0  0  0  0  0  0  0  0  0
   47.0590   33.9260   39.8820 C   0  0  0  0  0  0  0  0  0  0  0  0
   46.3620   33.9920   41.0580 N   0  0  0  0  0  0  0  0  0  0  0  0
   45.6190   33.9500   45.4530 C   0  0  0  0  0  0  0  0  0  0  0  0
   44.7070   34.9790   45.7030 C   0  0  0  0  0  0  0  0  0  0  0  0
   44.5160   35.9490   44.6920 C   0  0  0  0  0  0  0  0  0  0  0  0
   45.2410   35.8160   43.5320 N   0  0  0  0  0  0  0  0  0  0  0  0
   46.1000   34.8110   43.3480 C   0  0  0  0  0  0  0  0  0  0  0  0
   46.2990   33.8820   44.2860 N   0  0  0  0  0  0  0  0  0  0  0  0
   46.5950   33.1730   38.8110 O   0  0  0  0  0  0  0  0  0  0  0  0
   48.3989   36.0152   42.7725 H   0  0  0  0  0  0  0  0  0  0  0  0
   49.7291   35.9542   40.6772 H   0  0  0  0  0  0  0  0  0  0  0  0
   48.8002   34.5563   38.7904 H   0  0  0  0  0  0  0  0  0  0  0  0
   45.7871   33.1802   46.2206 H   0  0  0  0  0  0  0  0  0  0  0  0
   44.1565   35.0325   46.6538 H   0  0  0  0  0  0  0  0  0  0  0  0
   43.8109   36.7820   44.8293 H   0  0  0  0  0  0  0  0  0  0  0  0
   45.7456   32.6706   38.8902 H   0  0  0  0  0  0  0  0  0  0  0  0
  1 11  1  0
  2  1  2  0
  3  2  1  0
  4  5  1  0
  4  3  2  0
  5  6  2  0
  6  1  1  0
  7  8  2  0
  9  8  1  0
 10  9  2  0
 11 10  1  0
 11 12  2  0
 12  7  1  0
 13  5  1  0
  2 14  1  0
  3 15  1  0
  4 16  1  0
  7 17  1  0
  8 18  1  0
  9 19  1  0
 13 20  1  0
M  ISO  7  14  14  15  14  16  14  17  14  18  14  19  14  20   3
M  END
>  <minimizedAffinity>  (1) 
-4.7888608

>  <minimizedRMSD>  (1) 
0.0181070846

$$$$
