
     RDKit          3D

 45 48  0  0  1  0  0  0  0  0999 V2000
   46.5550   32.9140   38.8460 C   0  0  1  0  0  0  0  0  0  0  0  0
   45.0990   33.2470   38.4480 C   0  0  0  0  0  0  0  0  0  0  0  0
   44.6570   32.0090   37.6410 C   0  0  0  0  0  0  0  0  0  0  0  0
   45.3790   32.1730   36.3070 C   0  0  0  0  0  0  0  0  0  0  0  0
   46.8360   32.2150   36.4590 C   0  0  0  0  0  0  0  0  0  0  0  0
   47.4310   32.8130   37.6940 C   0  0  2  0  0  0  0  0  0  0  0  0
   46.8490   34.6460   42.0910 C   0  0  0  0  0  0  0  0  0  0  0  0
   47.9770   35.3870   41.8880 C   0  0  0  0  0  0  0  0  0  0  0  0
   48.7040   35.3940   40.7180 C   0  0  0  0  0  0  0  0  0  0  0  0
   48.1780   34.5540   39.7250 C   0  0  0  0  0  0  0  0  0  0  0  0
   47.0300   33.7870   39.9170 C   0  0  0  0  0  0  0  0  0  0  0  0
   46.3730   33.8420   41.1070 N   0  0  0  0  0  0  0  0  0  0  0  0
   45.6060   33.9580   45.4690 C   0  0  0  0  0  0  0  0  0  0  0  0
   44.7050   34.9820   45.7130 C   0  0  0  0  0  0  0  0  0  0  0  0
   44.5320   35.9150   44.6950 C   0  0  0  0  0  0  0  0  0  0  0  0
   45.2490   35.7700   43.5330 N   0  0  0  0  0  0  0  0  0  0  0  0
   46.1200   34.7390   43.3550 C   0  0  0  0  0  0  0  0  0  0  0  0
   46.2940   33.8530   44.3060 N   0  0  0  0  0  0  0  0  0  0  0  0
   48.6740   31.9980   37.9010 C   0  0  0  0  0  0  0  0  0  0  0  0
   49.9130   32.3100   37.4450 C   0  0  0  0  0  0  0  0  0  0  0  0
   51.0340   31.5690   37.6730 C   0  0  0  0  0  0  0  0  0  0  0  0
   50.9660   30.4210   38.4080 C   0  0  0  0  0  0  0  0  0  0  0  0
   49.7530   30.0480   38.8980 C   0  0  0  0  0  0  0  0  0  0  0  0
   48.6330   30.8110   38.6540 C   0  0  0  0  0  0  0  0  0  0  0  0
   46.5727   31.9031   39.2792 H   0  0  0  0  0  0  0  0  0  0  0  0
   44.4683   33.3817   39.3391 H   0  0  0  0  0  0  0  0  0  0  0  0
   45.0131   34.1841   37.8783 H   0  0  0  0  0  0  0  0  0  0  0  0
   44.9673   31.0812   38.1439 H   0  0  0  0  0  0  0  0  0  0  0  0
   43.5649   31.9391   37.5299 H   0  0  0  0  0  0  0  0  0  0  0  0
   45.0460   33.1109   35.8386 H   0  0  0  0  0  0  0  0  0  0  0  0
   45.1329   31.3003   35.6842 H   0  0  0  0  0  0  0  0  0  0  0  0
   47.1936   31.1763   36.4023 H   0  0  0  0  0  0  0  0  0  0  0  0
   47.1594   32.8981   35.6598 H   0  0  0  0  0  0  0  0  0  0  0  0
   47.6437   33.8843   37.5636 H   0  0  0  0  0  0  0  0  0  0  0  0
   48.3294   36.0215   42.7146 H   0  0  0  0  0  0  0  0  0  0  0  0
   49.6106   36.0005   40.5758 H   0  0  0  0  0  0  0  0  0  0  0  0
   48.6929   34.4983   38.7546 H   0  0  0  0  0  0  0  0  0  0  0  0
   45.7693   33.2006   46.2498 H   0  0  0  0  0  0  0  0  0  0  0  0
   44.1546   35.0538   46.6627 H   0  0  0  0  0  0  0  0  0  0  0  0
   43.8324   36.7547   44.8192 H   0  0  0  0  0  0  0  0  0  0  0  0
   50.0207   33.2276   36.8479 H   0  0  0  0  0  0  0  0  0  0  0  0
   51.9997   31.8983   37.2620 H   0  0  0  0  0  0  0  0  0  0  0  0
   51.8646   29.8158   38.5984 H   0  0  0  0  0  0  0  0  0  0  0  0
   49.6660   29.1281   39.4948 H   0  0  0  0  0  0  0  0  0  0  0  0
   47.6680   30.4789   39.0643 H   0  0  0  0  0  0  0  0  0  0  0  0
  1 11  1  0
  2  1  1  0
  3  2  1  0
  4  5  1  0
  4  3  1  0
  5  6  1  0
  6 19  1  0
  6  1  1  0
  7 17  1  0
  8  7  2  0
  9  8  1  0
 10 11  1  0
 10  9  2  0
 11 12  2  0
 12  7  1  0
 13 14  2  0
 15 14  1  0
 16 15  2  0
 17 16  1  0
 17 18  2  0
 18 13  1  0
 19 24  2  0
 20 21  2  0
 20 19  1  0
 21 22  1  0
 22 23  2  0
 24 23  1  0
  1 25  1  1
  2 26  1  0
  2 27  1  0
  3 28  1  0
  3 29  1  0
  4 30  1  0
  4 31  1  0
  5 32  1  0
  5 33  1  0
  6 34  1  6
  8 35  1  0
  9 36  1  0
 10 37  1  0
 13 38  1  0
 14 39  1  0
 15 40  1  0
 20 41  1  0
 21 42  1  0
 22 43  1  0
 23 44  1  0
 24 45  1  0
M  ISO  8  25  13  26  13  27  13  28  13  29  13  30  13  31  13  32  13
M  ISO  8  33  13  34  13  35  14  36  14  37  14  38  14  39  14  40  14
M  ISO  5  41  14  42  14  43  14  44  14  45  14
M  END
>  <minimizedAffinity>  (1) 
-5.69131517

>  <minimizedRMSD>  (1) 
0.792333364

$$$$
