
     RDKit          3D

 42 45  0  0  1  0  0  0  0  0999 V2000
   46.6270   33.1190   38.7990 C   0  0  1  0  0  0  0  0  0  0  0  0
   45.1000   33.0250   38.7990 C   0  0  0  0  0  0  0  0  0  0  0  0
   44.7790   31.8520   37.8690 C   0  0  0  0  0  0  0  0  0  0  0  0
   45.1080   32.3730   36.4640 C   0  0  0  0  0  0  0  0  0  0  0  0
   46.5780   32.6650   36.3760 C   0  0  0  0  0  0  0  0  0  0  0  0
   47.1700   33.4910   37.4830 C   0  0  2  0  0  0  0  0  0  0  0  0
   46.9140   34.7020   42.1050 C   0  0  0  0  0  0  0  0  0  0  0  0
   48.0750   35.4300   41.9530 C   0  0  0  0  0  0  0  0  0  0  0  0
   48.8150   35.4740   40.7930 C   0  0  0  0  0  0  0  0  0  0  0  0
   48.2840   34.7020   39.7600 C   0  0  0  0  0  0  0  0  0  0  0  0
   47.1150   33.9540   39.9000 C   0  0  0  0  0  0  0  0  0  0  0  0
   46.4420   33.9630   41.0720 N   0  0  0  0  0  0  0  0  0  0  0  0
   45.6180   33.9710   45.4460 C   0  0  0  0  0  0  0  0  0  0  0  0
   44.7020   34.9840   45.6840 C   0  0  0  0  0  0  0  0  0  0  0  0
   44.5360   35.9250   44.6740 C   0  0  0  0  0  0  0  0  0  0  0  0
   45.2740   35.7940   43.5270 N   0  0  0  0  0  0  0  0  0  0  0  0
   46.1600   34.7760   43.3540 C   0  0  0  0  0  0  0  0  0  0  0  0
   46.3280   33.8830   44.2930 N   0  0  0  0  0  0  0  0  0  0  0  0
   48.6660   33.1820   37.4010 C   0  0  0  0  0  0  0  0  0  0  0  0
   49.1550   32.3080   36.2340 C   0  0  0  0  0  0  0  0  0  0  0  0
   49.1460   31.7540   37.5880 C   0  0  0  0  0  0  0  0  0  0  0  0
   47.0198   32.1092   38.9888 H   0  0  0  0  0  0  0  0  0  0  0  0
   44.7241   32.8286   39.8140 H   0  0  0  0  0  0  0  0  0  0  0  0
   44.6270   33.9603   38.4652 H   0  0  0  0  0  0  0  0  0  0  0  0
   45.4014   30.9791   38.1154 H   0  0  0  0  0  0  0  0  0  0  0  0
   43.7334   31.5222   37.9581 H   0  0  0  0  0  0  0  0  0  0  0  0
   44.8391   31.6115   35.7172 H   0  0  0  0  0  0  0  0  0  0  0  0
   44.5368   33.2925   36.2683 H   0  0  0  0  0  0  0  0  0  0  0  0
   47.1086   31.7016   36.3588 H   0  0  0  0  0  0  0  0  0  0  0  0
   46.6979   33.2723   35.4667 H   0  0  0  0  0  0  0  0  0  0  0  0
   46.9410   34.5612   37.3721 H   0  0  0  0  0  0  0  0  0  0  0  0
   48.4331   36.0133   42.8142 H   0  0  0  0  0  0  0  0  0  0  0  0
   49.7385   36.0628   40.6905 H   0  0  0  0  0  0  0  0  0  0  0  0
   48.8094   34.6821   38.7938 H   0  0  0  0  0  0  0  0  0  0  0  0
   45.7755   33.2082   46.2227 H   0  0  0  0  0  0  0  0  0  0  0  0
   44.1349   35.0405   46.6248 H   0  0  0  0  0  0  0  0  0  0  0  0
   43.8269   36.7574   44.7933 H   0  0  0  0  0  0  0  0  0  0  0  0
   48.9230   34.1591   37.8361 H   0  0  0  0  0  0  0  0  0  0  0  0
   48.4368   31.9400   35.4865 H   0  0  0  0  0  0  0  0  0  0  0  0
   49.9178   32.4211   35.4495 H   0  0  0  0  0  0  0  0  0  0  0  0
   50.0984   31.5633   38.1042 H   0  0  0  0  0  0  0  0  0  0  0  0
   48.7091   30.8531   38.0435 H   0  0  0  0  0  0  0  0  0  0  0  0
  1 11  1  0
  2  1  1  0
  3  2  1  0
  4  3  1  0
  5  4  1  0
  5  6  1  0
  6  1  1  0
  7 17  1  0
  8  7  2  0
  9  8  1  0
 10 11  1  0
 10  9  2  0
 11 12  2  0
 12  7  1  0
 13 14  2  0
 15 14  1  0
 16 15  2  0
 17 16  1  0
 17 18  2  0
 18 13  1  0
 19  6  1  0
 19 21  1  0
 20 19  1  0
 20 21  1  0
  1 22  1  1
  2 23  1  0
  2 24  1  0
  3 25  1  0
  3 26  1  0
  4 27  1  0
  4 28  1  0
  5 29  1  0
  5 30  1  0
  6 31  1  6
  8 32  1  0
  9 33  1  0
 10 34  1  0
 13 35  1  0
 14 36  1  0
 15 37  1  0
 19 38  1  0
 20 39  1  0
 20 40  1  0
 21 41  1  0
 21 42  1  0
M  ISO  8  22  13  23  13  24  13  25  13  26  13  27  13  28  13  29  13
M  ISO  8  30  13  31  13  32  14  33  14  34  14  35  14  36  14  37  14
M  ISO  5  38  13  39  13  40  13  41  13  42  13
M  END
>  <minimizedAffinity>  (1) 
-5.6552949

>  <minimizedRMSD>  (1) 
0.35853526

$$$$
