
     RDKit          3D

 42 44  0  0  1  0  0  0  0  0999 V2000
   48.7510   31.2800   40.1870 C   0  0  1  0  0  0  0  0  0  0  0  0
   47.3450   30.6340   40.2570 C   0  0  0  0  0  0  0  0  0  0  0  0
   47.5180   29.3180   39.4890 C   0  0  0  0  0  0  0  0  0  0  0  0
   47.6860   29.6800   38.0410 C   0  0  0  0  0  0  0  0  0  0  0  0
   48.7960   30.6250   37.7960 C   0  0  0  0  0  0  0  0  0  0  0  0
   49.0080   31.7050   38.7920 C   0  0  1  0  0  0  0  0  0  0  0  0
   47.9460   33.9150   42.6480 C   0  0  0  0  0  0  0  0  0  0  0  0
   49.1970   34.3790   42.9480 C   0  0  0  0  0  0  0  0  0  0  0  0
   50.3650   33.8930   42.4010 C   0  0  0  0  0  0  0  0  0  0  0  0
   50.1840   32.8570   41.4880 C   0  0  0  0  0  0  0  0  0  0  0  0
   48.8990   32.3620   41.1620 C   0  0  0  0  0  0  0  0  0  0  0  0
   47.8090   32.9050   41.7530 N   0  0  0  0  0  0  0  0  0  0  0  0
   45.1780   34.5590   44.9540 C   0  0  0  0  0  0  0  0  0  0  0  0
   44.5320   35.6600   44.4140 C   0  0  0  0  0  0  0  0  0  0  0  0
   45.0720   36.1740   43.2390 C   0  0  0  0  0  0  0  0  0  0  0  0
   46.1830   35.5780   42.6930 N   0  0  0  0  0  0  0  0  0  0  0  0
   46.7700   34.4990   43.2760 C   0  0  0  0  0  0  0  0  0  0  0  0
   46.2720   33.9990   44.3900 N   0  0  0  0  0  0  0  0  0  0  0  0
   49.6570   34.0220   37.2540 N   0  0  0  0  0  0  0  0  0  0  0  0
   48.3870   33.8030   37.4860 C   0  0  0  0  0  0  0  0  0  0  0  0
   48.0960   32.7990   38.4530 N   0  0  0  0  0  0  0  0  0  0  0  0
   47.3070   34.4790   36.8560 N   0  0  0  0  0  0  0  0  0  0  0  0
   49.8760   34.7630   36.5400 H   0  0  0  0  0  0  0  0  0  0  0  0
   49.5177   30.5425   40.4666 H   0  0  0  0  0  0  0  0  0  0  0  0
   47.0505   30.4450   41.2998 H   0  0  0  0  0  0  0  0  0  0  0  0
   46.5569   31.2757   39.8361 H   0  0  0  0  0  0  0  0  0  0  0  0
   48.4078   28.7822   39.8512 H   0  0  0  0  0  0  0  0  0  0  0  0
   46.6488   28.6595   39.6331 H   0  0  0  0  0  0  0  0  0  0  0  0
   47.8804   28.7590   37.4718 H   0  0  0  0  0  0  0  0  0  0  0  0
   46.7590   30.1789   37.7218 H   0  0  0  0  0  0  0  0  0  0  0  0
   49.7243   30.0370   37.7447 H   0  0  0  0  0  0  0  0  0  0  0  0
   48.5194   31.1486   36.8690 H   0  0  0  0  0  0  0  0  0  0  0  0
   50.0651   32.0059   38.7475 H   0  0  0  0  0  0  0  0  0  0  0  0
   49.2767   35.1983   43.6777 H   0  0  0  0  0  0  0  0  0  0  0  0
   51.3567   34.2900   42.6635 H   0  0  0  0  0  0  0  0  0  0  0  0
   51.0661   32.4103   41.0060 H   0  0  0  0  0  0  0  0  0  0  0  0
   44.7832   34.1213   45.8827 H   0  0  0  0  0  0  0  0  0  0  0  0
   43.6430   36.1023   44.8873 H   0  0  0  0  0  0  0  0  0  0  0  0
   44.6143   37.0480   42.7526 H   0  0  0  0  0  0  0  0  0  0  0  0
   47.1910   32.8451   38.9426 H   0  0  0  0  0  0  0  0  0  0  0  0
   46.3359   34.2398   37.1022 H   0  0  0  0  0  0  0  0  0  0  0  0
   47.4955   35.2081   36.1533 H   0  0  0  0  0  0  0  0  0  0  0  0
  1  2  1  0
  1 11  1  0
  3  2  1  0
  4  3  1  0
  5  4  1  0
  5  6  1  0
  6  1  1  0
  7  8  2  0
  7 17  1  0
  9  8  1  0
 10  9  2  0
 11 10  1  0
 11 12  2  0
 12  7  1  0
 14 13  2  0
 15 14  1  0
 16 15  2  0
 16 17  1  0
 17 18  2  0
 18 13  1  0
 19 20  2  0
 20 21  1  0
 21  6  1  0
 22 20  1  0
 23 19  1  0
  1 24  1  1
  2 25  1  0
  2 26  1  0
  3 27  1  0
  3 28  1  0
  4 29  1  0
  4 30  1  0
  5 31  1  0
  5 32  1  0
  6 33  1  1
  8 34  1  0
  9 35  1  0
 10 36  1  0
 13 37  1  0
 14 38  1  0
 15 39  1  0
 21 40  1  0
 22 41  1  0
 22 42  1  0
M  ISO  8  24  13  25  13  26  13  27  13  28  13  29  13  30  13  31  13
M  ISO  8  32  13  33  13  34  14  35  14  36  14  37  14  38  14  39  14
M  END
>  <minimizedAffinity>  (1) 
-5.65366697

>  <minimizedRMSD>  (1) 
2.50841022

$$$$
