
     RDKit          3D

 50 53  0  0  1  0  0  0  0  0999 V2000
   46.2730   32.9360   38.8130 C   0  0  1  0  0  0  0  0  0  0  0  0
   44.8270   33.3510   38.4670 C   0  0  0  0  0  0  0  0  0  0  0  0
   44.2570   32.1890   37.6940 C   0  0  0  0  0  0  0  0  0  0  0  0
   45.0620   31.8130   36.5280 C   0  0  0  0  0  0  0  0  0  0  0  0
   46.3800   32.4800   36.3430 C   0  0  0  0  0  0  0  0  0  0  0  0
   47.0870   32.8820   37.5970 C   0  0  2  0  0  0  0  0  0  0  0  0
   46.7290   34.6010   42.0690 C   0  0  0  0  0  0  0  0  0  0  0  0
   47.9090   35.2760   41.8580 C   0  0  0  0  0  0  0  0  0  0  0  0
   48.6200   35.2420   40.6800 C   0  0  0  0  0  0  0  0  0  0  0  0
   48.0430   34.4480   39.6840 C   0  0  0  0  0  0  0  0  0  0  0  0
   46.8310   33.7470   39.8890 C   0  0  0  0  0  0  0  0  0  0  0  0
   46.2020   33.8430   41.0850 N   0  0  0  0  0  0  0  0  0  0  0  0
   45.5730   33.9690   45.4870 C   0  0  0  0  0  0  0  0  0  0  0  0
   44.6920   35.0090   45.7440 C   0  0  0  0  0  0  0  0  0  0  0  0
   44.5030   35.9330   44.7170 C   0  0  0  0  0  0  0  0  0  0  0  0
   45.1860   35.7610   43.5410 N   0  0  0  0  0  0  0  0  0  0  0  0
   46.0360   34.7180   43.3520 C   0  0  0  0  0  0  0  0  0  0  0  0
   46.2320   33.8330   44.3030 N   0  0  0  0  0  0  0  0  0  0  0  0
   48.2550   32.0450   37.7310 N   0  0  0  0  0  0  0  0  0  0  0  0
   49.3050   32.2910   36.8000 C   0  0  0  0  0  0  0  0  0  0  0  0
   50.6030   31.8540   37.4950 C   0  0  0  0  0  0  0  0  0  0  0  0
   50.5030   30.3960   37.7760 C   0  0  0  0  0  0  0  0  0  0  0  0
   49.1580   29.7810   37.5900 C   0  0  0  0  0  0  0  0  0  0  0  0
   48.0020   30.6700   37.9980 C   0  0  0  0  0  0  0  0  0  0  0  0
   46.2707   31.9154   39.2233 H   0  0  0  0  0  0  0  0  0  0  0  0
   44.2459   33.5263   39.3844 H   0  0  0  0  0  0  0  0  0  0  0  0
   44.7947   34.2857   37.8879 H   0  0  0  0  0  0  0  0  0  0  0  0
   44.1918   31.3213   38.3669 H   0  0  0  0  0  0  0  0  0  0  0  0
   43.2707   32.5010   37.3200 H   0  0  0  0  0  0  0  0  0  0  0  0
   45.2497   30.7312   36.5954 H   0  0  0  0  0  0  0  0  0  0  0  0
   44.4647   32.1417   35.6648 H   0  0  0  0  0  0  0  0  0  0  0  0
   47.0346   31.7874   35.7936 H   0  0  0  0  0  0  0  0  0  0  0  0
   46.1683   33.4164   35.8059 H   0  0  0  0  0  0  0  0  0  0  0  0
   47.3727   33.9386   37.4873 H   0  0  0  0  0  0  0  0  0  0  0  0
   48.3101   35.8819   42.6839 H   0  0  0  0  0  0  0  0  0  0  0  0
   49.5613   35.7922   40.5345 H   0  0  0  0  0  0  0  0  0  0  0  0
   48.5474   34.3657   38.7099 H   0  0  0  0  0  0  0  0  0  0  0  0
   45.7471   33.2209   46.2744 H   0  0  0  0  0  0  0  0  0  0  0  0
   44.1696   35.1001   46.7078 H   0  0  0  0  0  0  0  0  0  0  0  0
   43.8186   36.7841   44.8481 H   0  0  0  0  0  0  0  0  0  0  0  0
   49.3486   33.3609   36.5480 H   0  0  0  0  0  0  0  0  0  0  0  0
   49.1468   31.7394   35.8615 H   0  0  0  0  0  0  0  0  0  0  0  0
   51.4630   32.0498   36.8377 H   0  0  0  0  0  0  0  0  0  0  0  0
   50.7447   32.4156   38.4302 H   0  0  0  0  0  0  0  0  0  0  0  0
   51.2051   29.8764   37.1074 H   0  0  0  0  0  0  0  0  0  0  0  0
   50.7317   30.2860   38.8463 H   0  0  0  0  0  0  0  0  0  0  0  0
   49.0392   29.5288   36.5259 H   0  0  0  0  0  0  0  0  0  0  0  0
   49.1226   28.8989   38.2463 H   0  0  0  0  0  0  0  0  0  0  0  0
   47.8247   30.5463   39.0765 H   0  0  0  0  0  0  0  0  0  0  0  0
   47.1233   30.3698   37.4082 H   0  0  0  0  0  0  0  0  0  0  0  0
  1 11  1  0
  2  1  1  0
  3  2  1  0
  4  3  1  0
  5  4  1  0
  5  6  1  0
  6 19  1  0
  6  1  1  0
  7 17  1  0
  8  7  2  0
  9  8  1  0
 10 11  1  0
 10  9  2  0
 11 12  2  0
 12  7  1  0
 13 14  2  0
 15 14  1  0
 16 15  2  0
 17 16  1  0
 17 18  2  0
 18 13  1  0
 19 24  1  0
 20 21  1  0
 20 19  1  0
 21 22  1  0
 23 22  1  0
 23 24  1  0
  1 25  1  1
  2 26  1  0
  2 27  1  0
  3 28  1  0
  3 29  1  0
  4 30  1  0
  4 31  1  0
  5 32  1  0
  5 33  1  0
  6 34  1  6
  8 35  1  0
  9 36  1  0
 10 37  1  0
 13 38  1  0
 14 39  1  0
 15 40  1  0
 20 41  1  0
 20 42  1  0
 21 43  1  0
 21 44  1  0
 22 45  1  0
 22 46  1  0
 23 47  1  0
 23 48  1  0
 24 49  1  0
 24 50  1  0
M  ISO  8  25  13  26  13  27  13  28  13  29  13  30  13  31  13  32  13
M  ISO  8  33  13  34  13  35  14  36  14  37  14  38  14  39  14  40  14
M  ISO  8  41  13  42  13  43  13  44  13  45  13  46  13  47  13  48  13
M  ISO  2  49  13  50  13
M  END
>  <minimizedAffinity>  (1) 
-5.61884928

>  <minimizedRMSD>  (1) 
0.92203182

$$$$
