
     RDKit          3D

 37 39  0  0  1  0  0  0  0  0999 V2000
   46.3790   32.6870   38.9770 C   0  0  1  0  0  0  0  0  0  0  0  0
   45.0090   33.1590   38.4330 C   0  0  0  0  0  0  0  0  0  0  0  0
   44.4760   31.9070   37.7160 C   0  0  0  0  0  0  0  0  0  0  0  0
   45.3190   31.7320   36.4830 C   0  0  0  0  0  0  0  0  0  0  0  0
   46.7680   31.6040   36.7820 C   0  0  0  0  0  0  0  0  0  0  0  0
   47.3100   32.4690   37.8570 C   0  0  1  0  0  0  0  0  0  0  0  0
   46.7280   34.5790   42.1280 C   0  0  0  0  0  0  0  0  0  0  0  0
   47.8690   35.2880   41.8830 C   0  0  0  0  0  0  0  0  0  0  0  0
   48.5980   35.2130   40.7190 C   0  0  0  0  0  0  0  0  0  0  0  0
   48.0710   34.3290   39.7720 C   0  0  0  0  0  0  0  0  0  0  0  0
   46.8910   33.5880   40.0110 C   0  0  0  0  0  0  0  0  0  0  0  0
   46.2420   33.7290   41.1900 N   0  0  0  0  0  0  0  0  0  0  0  0
   45.4960   34.0340   45.5430 C   0  0  0  0  0  0  0  0  0  0  0  0
   44.6440   35.1060   45.7620 C   0  0  0  0  0  0  0  0  0  0  0  0
   44.5000   36.0180   44.7210 C   0  0  0  0  0  0  0  0  0  0  0  0
   45.1960   35.8070   43.5600 N   0  0  0  0  0  0  0  0  0  0  0  0
   46.0190   34.7350   43.4020 C   0  0  0  0  0  0  0  0  0  0  0  0
   46.1660   33.8610   44.3770 N   0  0  0  0  0  0  0  0  0  0  0  0
   47.7860   33.7800   37.2720 C   0  0  0  0  0  0  0  0  0  0  0  0
   48.6610   33.9990   36.4220 O   0  0  0  0  0  0  0  0  0  0  0  0
   46.2577   31.7191   39.4854 H   0  0  0  0  0  0  0  0  0  0  0  0
   44.3402   33.4609   39.2525 H   0  0  0  0  0  0  0  0  0  0  0  0
   45.0813   34.0386   37.7765 H   0  0  0  0  0  0  0  0  0  0  0  0
   44.5691   31.0264   38.3686 H   0  0  0  0  0  0  0  0  0  0  0  0
   43.4121   32.0174   37.4591 H   0  0  0  0  0  0  0  0  0  0  0  0
   45.1718   32.6058   35.8312 H   0  0  0  0  0  0  0  0  0  0  0  0
   45.0003   30.7979   35.9973 H   0  0  0  0  0  0  0  0  0  0  0  0
   46.9570   30.5591   37.0692 H   0  0  0  0  0  0  0  0  0  0  0  0
   47.2800   31.9313   35.8651 H   0  0  0  0  0  0  0  0  0  0  0  0
   48.1629   31.9304   38.2958 H   0  0  0  0  0  0  0  0  0  0  0  0
   48.2300   35.9657   42.6707 H   0  0  0  0  0  0  0  0  0  0  0  0
   49.5145   35.7967   40.5481 H   0  0  0  0  0  0  0  0  0  0  0  0
   48.5912   34.2064   38.8106 H   0  0  0  0  0  0  0  0  0  0  0  0
   45.6336   33.2954   46.3464 H   0  0  0  0  0  0  0  0  0  0  0  0
   44.1071   35.2296   46.7141 H   0  0  0  0  0  0  0  0  0  0  0  0
   43.8401   36.8915   44.8282 H   0  0  0  0  0  0  0  0  0  0  0  0
   47.2783   34.6754   37.6600 H   0  0  0  0  0  0  0  0  0  0  0  0
  1 11  1  0
  2  1  1  0
  3  2  1  0
  4  5  1  0
  4  3  1  0
  5  6  1  0
  6  1  1  0
  7 17  1  0
  8  7  2  0
  9  8  1  0
 10 11  1  0
 10  9  2  0
 11 12  2  0
 12  7  1  0
 13 14  2  0
 15 14  1  0
 16 15  2  0
 17 16  1  0
 17 18  2  0
 18 13  1  0
 19  6  1  0
 20 19  2  0
  1 21  1  1
  2 22  1  0
  2 23  1  0
  3 24  1  0
  3 25  1  0
  4 26  1  0
  4 27  1  0
  5 28  1  0
  5 29  1  0
  6 30  1  1
  8 31  1  0
  9 32  1  0
 10 33  1  0
 13 34  1  0
 14 35  1  0
 15 36  1  0
 19 37  1  0
M  ISO  8  21  13  22  13  23  13  24  13  25  13  26  13  27  13  28  13
M  ISO  8  29  13  30  13  31  14  32  14  33  14  34  14  35  14  36  14
M  ISO  1  37   6
M  END
>  <minimizedAffinity>  (1) 
-5.27672768

>  <minimizedRMSD>  (1) 
0.677768469

$$$$
