
     RDKit          3D

 37 39  0  0  1  0  0  0  0  0999 V2000
   47.3100   34.1940   42.2860 C   0  0  0  0  0  0  0  0  0  0  0  0
   48.2320   35.1930   42.1030 C   0  0  0  0  0  0  0  0  0  0  0  0
   48.7610   35.5460   40.8780 C   0  0  0  0  0  0  0  0  0  0  0  0
   48.2740   34.7840   39.8050 C   0  0  0  0  0  0  0  0  0  0  0  0
   47.3300   33.7590   39.9900 C   0  0  0  0  0  0  0  0  0  0  0  0
   46.8640   33.4780   41.2210 N   0  0  0  0  0  0  0  0  0  0  0  0
   46.8410   33.0000   38.8380 C   0  0  1  0  0  0  0  0  0  0  0  0
   45.3050   33.2110   38.6330 C   0  0  0  0  0  0  0  0  0  0  0  0
   44.9340   32.0400   37.6870 C   0  0  0  0  0  0  0  0  0  0  0  0
   45.5010   32.4730   36.3320 C   0  0  0  0  0  0  0  0  0  0  0  0
   46.9660   32.6610   36.3690 C   0  0  0  0  0  0  0  0  0  0  0  0
   47.5740   33.1930   37.6050 C   0  0  2  0  0  0  0  0  0  0  0  0
   49.1850   32.3440   37.8050 S   0  0  0  0  0  0  0  0  0  0  0  0
   46.7540   32.7090   45.5880 C   0  0  0  0  0  0  0  0  0  0  0  0
   45.7260   33.4440   46.1370 C   0  0  0  0  0  0  0  0  0  0  0  0
   45.2290   34.4600   45.3460 C   0  0  0  0  0  0  0  0  0  0  0  0
   45.7690   34.6790   44.0910 N   0  0  0  0  0  0  0  0  0  0  0  0
   46.7950   33.9000   43.6190 C   0  0  0  0  0  0  0  0  0  0  0  0
   47.2670   32.9430   44.3570 N   0  0  0  0  0  0  0  0  0  0  0  0
   44.2050   35.3190   45.6890 O   0  0  0  0  0  0  0  0  0  0  0  0
   48.5716   35.7485   42.9896 H   0  0  0  0  0  0  0  0  0  0  0  0
   49.4985   36.3526   40.7539 H   0  0  0  0  0  0  0  0  0  0  0  0
   48.6415   34.9948   38.7899 H   0  0  0  0  0  0  0  0  0  0  0  0
   47.0302   31.9485   39.0998 H   0  0  0  0  0  0  0  0  0  0  0  0
   44.7623   33.1396   39.5871 H   0  0  0  0  0  0  0  0  0  0  0  0
   45.0463   34.2014   38.2303 H   0  0  0  0  0  0  0  0  0  0  0  0
   45.3980   31.1014   38.0243 H   0  0  0  0  0  0  0  0  0  0  0  0
   43.8517   31.8461   37.6535 H   0  0  0  0  0  0  0  0  0  0  0  0
   45.0301   33.4230   36.0393 H   0  0  0  0  0  0  0  0  0  0  0  0
   45.2833   31.6751   35.6067 H   0  0  0  0  0  0  0  0  0  0  0  0
   47.4249   31.6799   36.1768 H   0  0  0  0  0  0  0  0  0  0  0  0
   47.1582   33.4395   35.6160 H   0  0  0  0  0  0  0  0  0  0  0  0
   47.6182   34.2830   37.4638 H   0  0  0  0  0  0  0  0  0  0  0  0
   49.4618   32.1981   39.1388 H   0  0  0  0  0  0  0  0  0  0  0  0
   47.1811   31.8876   46.1820 H   0  0  0  0  0  0  0  0  0  0  0  0
   45.3273   33.2346   47.1406 H   0  0  0  0  0  0  0  0  0  0  0  0
   43.9142   36.0210   45.0543 H   0  0  0  0  0  0  0  0  0  0  0  0
  1 18  1  0
  2  1  2  0
  3  2  1  0
  4  5  1  0
  4  3  2  0
  5  6  2  0
  6  1  1  0
  7  5  1  0
  8  7  1  0
  9  8  1  0
 10 11  1  0
 10  9  1  0
 11 12  1  0
 12 13  1  0
 12  7  1  0
 14 15  2  0
 16 20  1  0
 16 15  1  0
 17 16  2  0
 18 17  1  0
 18 19  2  0
 19 14  1  0
  2 21  1  0
  3 22  1  0
  4 23  1  0
  7 24  1  1
  8 25  1  0
  8 26  1  0
  9 27  1  0
  9 28  1  0
 10 29  1  0
 10 30  1  0
 11 31  1  0
 11 32  1  0
 12 33  1  6
 13 34  1  0
 14 35  1  0
 15 36  1  0
 20 37  1  0
M  ISO  8  21  14  22  14  23  14  24  13  25  13  26  13  27  13  28  13
M  ISO  8  29  13  30  13  31  13  32  13  33  13  34  11  35  14  36  14
M  ISO  1  37   3
M  END
>  <minimizedAffinity>  (1) 
-5.82043028

>  <minimizedRMSD>  (1) 
0.979439616

$$$$
