
     RDKit          3D

 45 48  0  0  1  0  0  0  0  0999 V2000
   47.4650   33.7190   42.5280 C   0  0  0  0  0  0  0  0  0  0  0  0
   48.2590   34.8400   42.4450 C   0  0  0  0  0  0  0  0  0  0  0  0
   48.6670   35.4130   41.2480 C   0  0  0  0  0  0  0  0  0  0  0  0
   48.1980   34.7490   40.1080 C   0  0  0  0  0  0  0  0  0  0  0  0
   47.3860   33.6040   40.1940 C   0  0  0  0  0  0  0  0  0  0  0  0
   47.0300   33.1040   41.3910 N   0  0  0  0  0  0  0  0  0  0  0  0
   46.9170   32.9760   38.9620 C   0  0  1  0  0  0  0  0  0  0  0  0
   45.3770   33.2770   38.7430 C   0  0  0  0  0  0  0  0  0  0  0  0
   44.9920   32.1900   37.6950 C   0  0  0  0  0  0  0  0  0  0  0  0
   45.5970   32.7330   36.3990 C   0  0  0  0  0  0  0  0  0  0  0  0
   47.0800   32.7670   36.4880 C   0  0  0  0  0  0  0  0  0  0  0  0
   47.6670   33.2280   37.7700 C   0  0  2  0  0  0  0  0  0  0  0  0
   49.2500   32.3410   37.9450 S   0  0  0  0  0  0  0  0  0  0  0  0
   47.1180   31.6380   45.5030 C   0  0  0  0  0  0  0  0  0  0  0  0
   46.2240   32.3330   46.3060 C   0  0  0  0  0  0  0  0  0  0  0  0
   45.7540   33.5160   45.8010 C   0  0  0  0  0  0  0  0  0  0  0  0
   46.1850   33.9290   44.5680 N   0  0  0  0  0  0  0  0  0  0  0  0
   47.0770   33.1890   43.8210 C   0  0  0  0  0  0  0  0  0  0  0  0
   47.5210   32.0770   44.2920 N   0  0  0  0  0  0  0  0  0  0  0  0
   44.8500   34.3550   46.4440 N   0  0  0  0  0  0  0  0  0  0  0  0
   45.8010   31.8500   47.6070 C   0  0  0  0  0  0  0  0  0  0  0  0
   45.2220   30.7050   48.0280 C   0  0  0  0  0  0  0  0  0  0  0  0
   45.0050   30.7170   49.4080 C   0  0  0  0  0  0  0  0  0  0  0  0
   45.4810   31.9230   49.7880 N   0  0  0  0  0  0  0  0  0  0  0  0
   45.9400   32.5730   48.7310 N   0  0  0  0  0  0  0  0  0  0  0  0
   48.5901   35.3100   43.3828 H   0  0  0  0  0  0  0  0  0  0  0  0
   49.3026   36.3095   41.1995 H   0  0  0  0  0  0  0  0  0  0  0  0
   48.4730   35.1346   39.1152 H   0  0  0  0  0  0  0  0  0  0  0  0
   47.0876   31.9030   39.1341 H   0  0  0  0  0  0  0  0  0  0  0  0
   44.8073   33.1548   39.6760 H   0  0  0  0  0  0  0  0  0  0  0  0
   45.1636   34.3064   38.4194 H   0  0  0  0  0  0  0  0  0  0  0  0
   45.4290   31.2153   37.9575 H   0  0  0  0  0  0  0  0  0  0  0  0
   43.9078   32.0165   37.6283 H   0  0  0  0  0  0  0  0  0  0  0  0
   45.2219   33.7522   36.2242 H   0  0  0  0  0  0  0  0  0  0  0  0
   45.3067   32.0729   35.5683 H   0  0  0  0  0  0  0  0  0  0  0  0
   47.4471   31.7467   36.3027 H   0  0  0  0  0  0  0  0  0  0  0  0
   47.3939   33.5147   35.7447 H   0  0  0  0  0  0  0  0  0  0  0  0
   47.7251   34.3240   37.6969 H   0  0  0  0  0  0  0  0  0  0  0  0
   49.5384   32.1794   39.2745 H   0  0  0  0  0  0  0  0  0  0  0  0
   47.5178   30.6820   45.8720 H   0  0  0  0  0  0  0  0  0  0  0  0
   44.5476   35.2296   45.9917 H   0  0  0  0  0  0  0  0  0  0  0  0
   44.4830   34.1018   47.3725 H   0  0  0  0  0  0  0  0  0  0  0  0
   44.9546   29.8675   47.3669 H   0  0  0  0  0  0  0  0  0  0  0  0
   44.5548   29.9330   50.0346 H   0  0  0  0  0  0  0  0  0  0  0  0
   45.4858   32.2817   50.7535 H   0  0  0  0  0  0  0  0  0  0  0  0
  1 18  1  0
  2  1  2  0
  3  2  1  0
  4  5  1  0
  4  3  2  0
  5  6  2  0
  6  1  1  0
  7  5  1  0
  8  7  1  0
  9  8  1  0
 10 11  1  0
 10  9  1  0
 11 12  1  0
 12 13  1  0
 12  7  1  0
 14 15  2  0
 15 21  1  0
 16 15  1  0
 16 20  1  0
 17 16  2  0
 18 19  2  0
 18 17  1  0
 19 14  1  0
 21 22  1  0
 21 25  2  0
 22 23  2  0
 23 24  1  0
 25 24  1  0
  2 26  1  0
  3 27  1  0
  4 28  1  0
  7 29  1  1
  8 30  1  0
  8 31  1  0
  9 32  1  0
  9 33  1  0
 10 34  1  0
 10 35  1  0
 11 36  1  0
 11 37  1  0
 12 38  1  6
 13 39  1  0
 14 40  1  0
 20 41  1  0
 20 42  1  0
 22 43  1  0
 23 44  1  0
 24 45  1  0
M  ISO  8  26  14  27  14  28  14  29  13  30  13  31  13  32  13  33  13
M  ISO  8  34  13  35  13  36  13  37  13  38  13  39  11  40  14  43  14
M  ISO  2  44  14  45   9
M  END
>  <minimizedAffinity>  (1) 
-7.013309

>  <minimizedRMSD>  (1) 
0.971865833

$$$$
