
     RDKit          3D

 48 51  0  0  1  0  0  0  0  0999 V2000
   47.6070   33.6890   42.0920 C   0  0  0  0  0  0  0  0  0  0  0  0
   48.3110   34.8650   42.0010 C   0  0  0  0  0  0  0  0  0  0  0  0
   48.6640   35.4590   40.8030 C   0  0  0  0  0  0  0  0  0  0  0  0
   48.2420   34.7570   39.6640 C   0  0  0  0  0  0  0  0  0  0  0  0
   47.5210   33.5530   39.7600 C   0  0  0  0  0  0  0  0  0  0  0  0
   47.2110   33.0320   40.9610 N   0  0  0  0  0  0  0  0  0  0  0  0
   47.0990   32.8880   38.5320 C   0  0  1  0  0  0  0  0  0  0  0  0
   45.5620   33.1620   38.2580 C   0  0  0  0  0  0  0  0  0  0  0  0
   45.2210   32.0390   37.2360 C   0  0  0  0  0  0  0  0  0  0  0  0
   45.8720   32.5180   35.9410 C   0  0  0  0  0  0  0  0  0  0  0  0
   47.3450   32.6020   36.0730 C   0  0  0  0  0  0  0  0  0  0  0  0
   47.8850   33.1080   37.3560 C   0  0  2  0  0  0  0  0  0  0  0  0
   49.4750   32.2520   37.6080 S   0  0  0  0  0  0  0  0  0  0  0  0
   47.3890   31.5510   45.0560 C   0  0  0  0  0  0  0  0  0  0  0  0
   46.5020   32.2050   45.8730 C   0  0  0  0  0  0  0  0  0  0  0  0
   45.9790   33.3850   45.4060 C   0  0  0  0  0  0  0  0  0  0  0  0
   46.3750   33.8230   44.1690 N   0  0  0  0  0  0  0  0  0  0  0  0
   47.2670   33.1260   43.3910 C   0  0  0  0  0  0  0  0  0  0  0  0
   47.7520   32.0220   43.8370 N   0  0  0  0  0  0  0  0  0  0  0  0
   45.0650   34.2040   46.0720 N   0  0  0  0  0  0  0  0  0  0  0  0
   45.0790   29.8740   46.0190 F   0  0  0  0  0  0  0  0  0  0  0  0
   45.3570   30.5490   47.1490 C   0  0  0  0  0  0  0  0  0  0  0  0
   46.0750   31.7470   47.1910 C   0  0  0  0  0  0  0  0  0  0  0  0
   46.3530   32.4290   48.3490 C   0  0  0  0  0  0  0  0  0  0  0  0
   45.8730   31.8580   49.5220 C   0  0  0  0  0  0  0  0  0  0  0  0
   45.1530   30.6640   49.5230 C   0  0  0  0  0  0  0  0  0  0  0  0
   44.8980   30.0150   48.3340 C   0  0  0  0  0  0  0  0  0  0  0  0
   48.6113   35.3629   42.9347 H   0  0  0  0  0  0  0  0  0  0  0  0
   49.2278   36.4019   40.7479 H   0  0  0  0  0  0  0  0  0  0  0  0
   48.4815   35.1591   38.6686 H   0  0  0  0  0  0  0  0  0  0  0  0
   47.2778   31.8227   38.7398 H   0  0  0  0  0  0  0  0  0  0  0  0
   44.9664   33.0623   39.1774 H   0  0  0  0  0  0  0  0  0  0  0  0
   45.3464   34.1778   37.8951 H   0  0  0  0  0  0  0  0  0  0  0  0
   45.6455   31.0758   37.5555 H   0  0  0  0  0  0  0  0  0  0  0  0
   44.1388   31.8714   37.1323 H   0  0  0  0  0  0  0  0  0  0  0  0
   45.4782   33.5140   35.6900 H   0  0  0  0  0  0  0  0  0  0  0  0
   45.6372   31.7929   35.1478 H   0  0  0  0  0  0  0  0  0  0  0  0
   47.7485   31.5900   35.9210 H   0  0  0  0  0  0  0  0  0  0  0  0
   47.6533   33.3464   35.3241 H   0  0  0  0  0  0  0  0  0  0  0  0
   47.9322   34.2019   37.2500 H   0  0  0  0  0  0  0  0  0  0  0  0
   49.7160   32.1222   38.9504 H   0  0  0  0  0  0  0  0  0  0  0  0
   47.8249   30.6032   45.4048 H   0  0  0  0  0  0  0  0  0  0  0  0
   44.7346   35.0733   45.6293 H   0  0  0  0  0  0  0  0  0  0  0  0
   44.7212   33.9388   47.0060 H   0  0  0  0  0  0  0  0  0  0  0  0
   46.9214   33.3708   48.3490 H   0  0  0  0  0  0  0  0  0  0  0  0
   46.0673   32.3639   50.4792 H   0  0  0  0  0  0  0  0  0  0  0  0
   44.7892   30.2407   50.4709 H   0  0  0  0  0  0  0  0  0  0  0  0
   44.3296   29.0732   48.3308 H   0  0  0  0  0  0  0  0  0  0  0  0
  1 18  1  0
  2  1  2  0
  3  2  1  0
  4  5  1  0
  4  3  2  0
  5  6  2  0
  6  1  1  0
  7  5  1  0
  8  7  1  0
  9  8  1  0
 10 11  1  0
 10  9  1  0
 11 12  1  0
 12 13  1  0
 12  7  1  0
 14 15  2  0
 15 23  1  0
 16 15  1  0
 16 20  1  0
 17 16  2  0
 18 19  2  0
 18 17  1  0
 19 14  1  0
 21 22  1  0
 22 23  2  0
 22 27  1  0
 23 24  1  0
 24 25  2  0
 25 26  1  0
 27 26  2  0
  2 28  1  0
  3 29  1  0
  4 30  1  0
  7 31  1  1
  8 32  1  0
  8 33  1  0
  9 34  1  0
  9 35  1  0
 10 36  1  0
 10 37  1  0
 11 38  1  0
 11 39  1  0
 12 40  1  6
 13 41  1  0
 14 42  1  0
 20 43  1  0
 20 44  1  0
 24 45  1  0
 25 46  1  0
 26 47  1  0
 27 48  1  0
M  ISO  8  28  14  29  14  30  14  31  13  32  13  33  13  34  13  35  13
M  ISO  8  36  13  37  13  38  13  39  13  40  13  41  11  42  14  45  14
M  ISO  3  46  14  47  14  48  14
M  END
>  <minimizedAffinity>  (1) 
-6.71184349

>  <minimizedRMSD>  (1) 
1.18792164

$$$$
