
     RDKit          3D

 45 48  0  0  1  0  0  0  0  0999 V2000
   47.2630   34.0430   42.6770 C   0  0  0  0  0  0  0  0  0  0  0  0
   48.2110   35.0600   42.5500 C   0  0  0  0  0  0  0  0  0  0  0  0
   48.7260   35.4760   41.3350 C   0  0  0  0  0  0  0  0  0  0  0  0
   48.2170   34.7890   40.2270 C   0  0  0  0  0  0  0  0  0  0  0  0
   47.2610   33.7640   40.3630 C   0  0  0  0  0  0  0  0  0  0  0  0
   46.8060   33.4120   41.5780 N   0  0  0  0  0  0  0  0  0  0  0  0
   46.7560   33.1020   39.1670 C   0  0  1  0  0  0  0  0  0  0  0  0
   45.2200   33.4360   38.9660 C   0  0  0  0  0  0  0  0  0  0  0  0
   44.7860   32.3330   37.9650 C   0  0  0  0  0  0  0  0  0  0  0  0
   45.3850   32.7900   36.6370 C   0  0  0  0  0  0  0  0  0  0  0  0
   46.8660   32.8140   36.6950 C   0  0  0  0  0  0  0  0  0  0  0  0
   47.4860   33.2980   37.9510 C   0  0  2  0  0  0  0  0  0  0  0  0
   49.0550   32.3860   38.1270 S   0  0  0  0  0  0  0  0  0  0  0  0
   46.7090   32.3730   45.8650 C   0  0  0  0  0  0  0  0  0  0  0  0
   45.7370   33.1450   46.5030 C   0  0  0  0  0  0  0  0  0  0  0  0
   45.2940   34.2320   45.7960 C   0  0  0  0  0  0  0  0  0  0  0  0
   45.8110   34.4890   44.5560 N   0  0  0  0  0  0  0  0  0  0  0  0
   46.7760   33.6770   43.9890 C   0  0  0  0  0  0  0  0  0  0  0  0
   47.2000   32.6530   44.6410 N   0  0  0  0  0  0  0  0  0  0  0  0
   44.3140   35.1160   46.2420 N   0  0  0  0  0  0  0  0  0  0  0  0
   45.2500   32.7940   47.8350 C   0  0  0  0  0  0  0  0  0  0  0  0
   44.9220   31.4080   48.2350 C   0  0  0  0  0  0  0  0  0  0  0  0
   46.0590   32.2000   48.9030 C   0  0  0  0  0  0  0  0  0  0  0  0
   48.5674   35.5569   43.4643 H   0  0  0  0  0  0  0  0  0  0  0  0
   49.4726   36.2791   41.2473 H   0  0  0  0  0  0  0  0  0  0  0  0
   48.5737   35.0572   39.2216 H   0  0  0  0  0  0  0  0  0  0  0  0
   46.9066   32.0323   39.3743 H   0  0  0  0  0  0  0  0  0  0  0  0
   44.6657   33.3586   39.9130 H   0  0  0  0  0  0  0  0  0  0  0  0
   45.0285   34.4599   38.6125 H   0  0  0  0  0  0  0  0  0  0  0  0
   45.1906   31.3539   38.2611 H   0  0  0  0  0  0  0  0  0  0  0  0
   43.6943   32.2068   37.9182 H   0  0  0  0  0  0  0  0  0  0  0  0
   45.0188   33.8016   36.4078 H   0  0  0  0  0  0  0  0  0  0  0  0
   45.0793   32.0794   35.8550 H   0  0  0  0  0  0  0  0  0  0  0  0
   47.2207   31.7867   36.5251 H   0  0  0  0  0  0  0  0  0  0  0  0
   47.1683   33.5438   35.9295 H   0  0  0  0  0  0  0  0  0  0  0  0
   47.5627   34.3897   37.8397 H   0  0  0  0  0  0  0  0  0  0  0  0
   49.3402   32.2202   39.4567 H   0  0  0  0  0  0  0  0  0  0  0  0
   47.0959   31.4871   46.3898 H   0  0  0  0  0  0  0  0  0  0  0  0
   44.0324   35.9126   45.6529 H   0  0  0  0  0  0  0  0  0  0  0  0
   43.8710   34.9730   47.1608 H   0  0  0  0  0  0  0  0  0  0  0  0
   44.6838   33.7341   47.7604 H   0  0  0  0  0  0  0  0  0  0  0  0
   43.9952   31.1941   48.7875 H   0  0  0  0  0  0  0  0  0  0  0  0
   44.8309   30.4393   47.7218 H   0  0  0  0  0  0  0  0  0  0  0  0
   47.1078   31.9266   48.7152 H   0  0  0  0  0  0  0  0  0  0  0  0
   46.3203   32.4771   49.9350 H   0  0  0  0  0  0  0  0  0  0  0  0
  1 18  1  0
  2  1  2  0
  3  2  1  0
  4  5  1  0
  4  3  2  0
  5  6  2  0
  6  1  1  0
  7  5  1  0
  8  7  1  0
  9  8  1  0
 10 11  1  0
 10  9  1  0
 11 12  1  0
 12 13  1  0
 12  7  1  0
 14 15  2  0
 15 21  1  0
 16 20  1  0
 16 15  1  0
 17 16  2  0
 18 17  1  0
 18 19  2  0
 19 14  1  0
 21 22  1  0
 21 23  1  0
 22 23  1  0
  2 24  1  0
  3 25  1  0
  4 26  1  0
  7 27  1  1
  8 28  1  0
  8 29  1  0
  9 30  1  0
  9 31  1  0
 10 32  1  0
 10 33  1  0
 11 34  1  0
 11 35  1  0
 12 36  1  6
 13 37  1  0
 14 38  1  0
 20 39  1  0
 20 40  1  0
 21 41  1  0
 22 42  1  0
 22 43  1  0
 23 44  1  0
 23 45  1  0
M  ISO  8  24  14  25  14  26  14  27  13  28  13  29  13  30  13  31  13
M  ISO  8  32  13  33  13  34  13  35  13  36  13  37  11  38  14  41  13
M  ISO  4  42  13  43  13  44  13  45  13
M  END
>  <minimizedAffinity>  (1) 
-6.70186615

>  <minimizedRMSD>  (1) 
0.461800665

$$$$
