
     RDKit          3D

 41 43  0  0  1  0  0  0  0  0999 V2000
   47.3840   33.9710   42.4340 C   0  0  0  0  0  0  0  0  0  0  0  0
   48.2480   35.0310   42.2840 C   0  0  0  0  0  0  0  0  0  0  0  0
   48.7140   35.4800   41.0570 C   0  0  0  0  0  0  0  0  0  0  0  0
   48.2300   34.7600   39.9580 C   0  0  0  0  0  0  0  0  0  0  0  0
   47.3450   33.6760   40.1140 C   0  0  0  0  0  0  0  0  0  0  0  0
   46.9360   33.2970   41.3370 N   0  0  0  0  0  0  0  0  0  0  0  0
   46.8640   32.9850   38.9210 C   0  0  1  0  0  0  0  0  0  0  0  0
   45.3100   33.2350   38.7320 C   0  0  0  0  0  0  0  0  0  0  0  0
   44.9290   32.0950   37.7440 C   0  0  0  0  0  0  0  0  0  0  0  0
   45.4980   32.5830   36.4040 C   0  0  0  0  0  0  0  0  0  0  0  0
   46.9730   32.6680   36.4580 C   0  0  0  0  0  0  0  0  0  0  0  0
   47.5800   33.2030   37.7000 C   0  0  2  0  0  0  0  0  0  0  0  0
   49.1860   32.3600   37.8800 S   0  0  0  0  0  0  0  0  0  0  0  0
   46.9350   32.2220   45.6040 C   0  0  0  0  0  0  0  0  0  0  0  0
   45.9810   32.9470   46.2700 C   0  0  0  0  0  0  0  0  0  0  0  0
   45.4910   34.0500   45.6140 C   0  0  0  0  0  0  0  0  0  0  0  0
   45.9750   34.3540   44.3600 N   0  0  0  0  0  0  0  0  0  0  0  0
   46.9400   33.5700   43.7540 C   0  0  0  0  0  0  0  0  0  0  0  0
   47.4000   32.5370   44.3690 N   0  0  0  0  0  0  0  0  0  0  0  0
   44.5120   34.9390   46.0930 N   0  0  0  0  0  0  0  0  0  0  0  0
   45.4440   32.6520   47.6060 C   0  0  0  0  0  0  0  0  0  0  0  0
   44.4230   33.5300   47.9160 F   0  0  0  0  0  0  0  0  0  0  0  0
   46.3840   32.7240   48.6000 F   0  0  0  0  0  0  0  0  0  0  0  0
   44.8750   31.3730   47.6560 F   0  0  0  0  0  0  0  0  0  0  0  0
   48.5893   35.5531   43.1901 H   0  0  0  0  0  0  0  0  0  0  0  0
   49.4052   36.3297   40.9560 H   0  0  0  0  0  0  0  0  0  0  0  0
   48.5496   35.0489   38.9459 H   0  0  0  0  0  0  0  0  0  0  0  0
   47.0683   31.9246   39.1305 H   0  0  0  0  0  0  0  0  0  0  0  0
   44.7689   33.1383   39.6848 H   0  0  0  0  0  0  0  0  0  0  0  0
   45.0591   34.2433   38.3709 H   0  0  0  0  0  0  0  0  0  0  0  0
   45.3904   31.1427   38.0445 H   0  0  0  0  0  0  0  0  0  0  0  0
   43.8467   31.9017   37.7069 H   0  0  0  0  0  0  0  0  0  0  0  0
   45.0877   33.5786   36.1794 H   0  0  0  0  0  0  0  0  0  0  0  0
   45.2153   31.8656   35.6195 H   0  0  0  0  0  0  0  0  0  0  0  0
   47.3678   31.6522   36.3087 H   0  0  0  0  0  0  0  0  0  0  0  0
   47.2418   33.3950   35.6775 H   0  0  0  0  0  0  0  0  0  0  0  0
   47.6117   34.2952   37.5730 H   0  0  0  0  0  0  0  0  0  0  0  0
   49.4754   32.2081   39.2104 H   0  0  0  0  0  0  0  0  0  0  0  0
   47.3482   31.3317   46.1006 H   0  0  0  0  0  0  0  0  0  0  0  0
   44.2158   35.7387   45.5155 H   0  0  0  0  0  0  0  0  0  0  0  0
   44.0913   34.7903   47.0213 H   0  0  0  0  0  0  0  0  0  0  0  0
  1 18  1  0
  2  1  2  0
  3  2  1  0
  4  5  1  0
  4  3  2  0
  5  6  2  0
  6  1  1  0
  7  5  1  0
  8  7  1  0
  9  8  1  0
 10 11  1  0
 10  9  1  0
 11 12  1  0
 12 13  1  0
 12  7  1  0
 14 15  2  0
 15 21  1  0
 16 20  1  0
 16 15  1  0
 17 16  2  0
 18 17  1  0
 18 19  2  0
 19 14  1  0
 21 24  1  0
 21 22  1  0
 21 23  1  0
  2 25  1  0
  3 26  1  0
  4 27  1  0
  7 28  1  1
  8 29  1  0
  8 30  1  0
  9 31  1  0
  9 32  1  0
 10 33  1  0
 10 34  1  0
 11 35  1  0
 11 36  1  0
 12 37  1  6
 13 38  1  0
 14 39  1  0
 20 40  1  0
 20 41  1  0
M  ISO  8  25  14  26  14  27  14  28  13  29  13  30  13  31  13  32  13
M  ISO  7  33  13  34  13  35  13  36  13  37  13  38  11  39  14
M  END
>  <minimizedAffinity>  (1) 
-6.61502409

>  <minimizedRMSD>  (1) 
0.389599532

$$$$
