
     RDKit          3D

 40 42  0  0  1  0  0  0  0  0999 V2000
   47.3120   34.1690   42.2620 C   0  0  0  0  0  0  0  0  0  0  0  0
   48.2390   35.1860   42.0920 C   0  0  0  0  0  0  0  0  0  0  0  0
   48.7710   35.5470   40.8580 C   0  0  0  0  0  0  0  0  0  0  0  0
   48.2860   34.7850   39.7840 C   0  0  0  0  0  0  0  0  0  0  0  0
   47.3460   33.7570   39.9680 C   0  0  0  0  0  0  0  0  0  0  0  0
   46.8750   33.4630   41.1940 N   0  0  0  0  0  0  0  0  0  0  0  0
   46.8750   33.0180   38.8020 C   0  0  1  0  0  0  0  0  0  0  0  0
   45.3210   33.2460   38.5930 C   0  0  0  0  0  0  0  0  0  0  0  0
   44.9510   32.0680   37.6530 C   0  0  0  0  0  0  0  0  0  0  0  0
   45.5240   32.5110   36.2970 C   0  0  0  0  0  0  0  0  0  0  0  0
   46.9980   32.5990   36.3530 C   0  0  0  0  0  0  0  0  0  0  0  0
   47.5990   33.1830   37.5780 C   0  0  2  0  0  0  0  0  0  0  0  0
   49.2130   32.3650   37.7900 S   0  0  0  0  0  0  0  0  0  0  0  0
   46.7270   32.6820   45.5450 C   0  0  0  0  0  0  0  0  0  0  0  0
   45.7280   33.4450   46.0970 C   0  0  0  0  0  0  0  0  0  0  0  0
   45.2580   34.4800   45.3230 C   0  0  0  0  0  0  0  0  0  0  0  0
   45.8050   34.6750   44.0840 N   0  0  0  0  0  0  0  0  0  0  0  0
   46.8080   33.8690   43.5900 C   0  0  0  0  0  0  0  0  0  0  0  0
   47.2540   32.8990   44.3080 N   0  0  0  0  0  0  0  0  0  0  0  0
   44.2450   35.3830   45.6840 N   0  0  0  0  0  0  0  0  0  0  0  0
   45.1630   33.2540   47.3610 N   0  0  0  0  0  0  0  0  0  0  0  0
   48.5726   35.7385   42.9828 H   0  0  0  0  0  0  0  0  0  0  0  0
   49.5055   36.3566   40.7354 H   0  0  0  0  0  0  0  0  0  0  0  0
   48.6522   34.9986   38.7690 H   0  0  0  0  0  0  0  0  0  0  0  0
   47.0834   31.9689   39.0588 H   0  0  0  0  0  0  0  0  0  0  0  0
   44.7754   33.1844   39.5462 H   0  0  0  0  0  0  0  0  0  0  0  0
   45.0666   34.2364   38.1875 H   0  0  0  0  0  0  0  0  0  0  0  0
   45.4173   31.1311   37.9917 H   0  0  0  0  0  0  0  0  0  0  0  0
   43.8706   31.8639   37.6201 H   0  0  0  0  0  0  0  0  0  0  0  0
   45.1135   33.4979   36.0373 H   0  0  0  0  0  0  0  0  0  0  0  0
   45.2441   31.7673   35.5364 H   0  0  0  0  0  0  0  0  0  0  0  0
   47.3943   31.5786   36.2447 H   0  0  0  0  0  0  0  0  0  0  0  0
   47.2702   33.2947   35.5456 H   0  0  0  0  0  0  0  0  0  0  0  0
   47.6271   34.2701   37.4123 H   0  0  0  0  0  0  0  0  0  0  0  0
   49.4835   32.2279   39.1260 H   0  0  0  0  0  0  0  0  0  0  0  0
   47.1257   31.8452   46.1373 H   0  0  0  0  0  0  0  0  0  0  0  0
   43.9625   36.1279   45.0312 H   0  0  0  0  0  0  0  0  0  0  0  0
   43.7845   35.3004   46.6016 H   0  0  0  0  0  0  0  0  0  0  0  0
   44.4147   33.8804   47.6906 H   0  0  0  0  0  0  0  0  0  0  0  0
   45.4949   32.4869   47.9629 H   0  0  0  0  0  0  0  0  0  0  0  0
  1 18  1  0
  2  1  2  0
  3  2  1  0
  4  5  1  0
  4  3  2  0
  5  6  2  0
  6  1  1  0
  7  5  1  0
  8  7  1  0
  9  8  1  0
 10 11  1  0
 10  9  1  0
 11 12  1  0
 12 13  1  0
 12  7  1  0
 14 15  2  0
 15 21  1  0
 16 20  1  0
 16 15  1  0
 17 16  2  0
 18 17  1  0
 18 19  2  0
 19 14  1  0
  2 22  1  0
  3 23  1  0
  4 24  1  0
  7 25  1  1
  8 26  1  0
  8 27  1  0
  9 28  1  0
  9 29  1  0
 10 30  1  0
 10 31  1  0
 11 32  1  0
 11 33  1  0
 12 34  1  6
 13 35  1  0
 14 36  1  0
 20 37  1  0
 20 38  1  0
 21 39  1  0
 21 40  1  0
M  ISO  8  22  14  23  14  24  14  25  13  26  13  27  13  28  13  29  13
M  ISO  7  30  13  31  13  32  13  33  13  34  13  35  11  36  14
M  END
>  <minimizedAffinity>  (1) 
-6.43724251

>  <minimizedRMSD>  (1) 
0.0373339131

$$$$
