
     RDKit          3D

 44 46  0  0  1  0  0  0  0  0999 V2000
   47.2800   34.0410   42.6480 C   0  0  0  0  0  0  0  0  0  0  0  0
   48.2150   35.0620   42.5170 C   0  0  0  0  0  0  0  0  0  0  0  0
   48.7270   35.4870   41.2960 C   0  0  0  0  0  0  0  0  0  0  0  0
   48.2160   34.7940   40.1920 C   0  0  0  0  0  0  0  0  0  0  0  0
   47.2680   33.7610   40.3310 C   0  0  0  0  0  0  0  0  0  0  0  0
   46.8230   33.4090   41.5500 N   0  0  0  0  0  0  0  0  0  0  0  0
   46.7680   33.1000   39.1330 C   0  0  1  0  0  0  0  0  0  0  0  0
   45.2300   33.4230   38.9290 C   0  0  0  0  0  0  0  0  0  0  0  0
   44.8020   32.2990   37.9440 C   0  0  0  0  0  0  0  0  0  0  0  0
   45.3860   32.7460   36.6170 C   0  0  0  0  0  0  0  0  0  0  0  0
   46.8720   32.7980   36.6680 C   0  0  0  0  0  0  0  0  0  0  0  0
   47.4970   33.2900   37.9160 C   0  0  2  0  0  0  0  0  0  0  0  0
   49.0670   32.3830   38.0940 S   0  0  0  0  0  0  0  0  0  0  0  0
   46.7750   32.3400   45.8390 C   0  0  0  0  0  0  0  0  0  0  0  0
   45.8050   33.0920   46.4680 C   0  0  0  0  0  0  0  0  0  0  0  0
   45.3240   34.1990   45.7760 C   0  0  0  0  0  0  0  0  0  0  0  0
   45.8420   34.4600   44.5340 N   0  0  0  0  0  0  0  0  0  0  0  0
   46.8050   33.6730   43.9650 C   0  0  0  0  0  0  0  0  0  0  0  0
   47.2450   32.6510   44.6090 N   0  0  0  0  0  0  0  0  0  0  0  0
   44.3450   35.0870   46.2310 N   0  0  0  0  0  0  0  0  0  0  0  0
   45.1800   32.9060   47.7860 C   0  0  0  0  0  0  0  0  0  0  0  0
   46.0910   32.1630   48.7500 C   0  0  0  0  0  0  0  0  0  0  0  0
   48.5695   35.5615   43.4307 H   0  0  0  0  0  0  0  0  0  0  0  0
   49.4674   36.2955   41.2056 H   0  0  0  0  0  0  0  0  0  0  0  0
   48.5655   35.0644   39.1847 H   0  0  0  0  0  0  0  0  0  0  0  0
   46.9273   32.0324   39.3446 H   0  0  0  0  0  0  0  0  0  0  0  0
   44.6769   33.3574   39.8776 H   0  0  0  0  0  0  0  0  0  0  0  0
   45.0316   34.4402   38.5604 H   0  0  0  0  0  0  0  0  0  0  0  0
   45.2198   31.3285   38.2500 H   0  0  0  0  0  0  0  0  0  0  0  0
   43.7119   32.1571   37.9051 H   0  0  0  0  0  0  0  0  0  0  0  0
   45.0009   33.7477   36.3757 H   0  0  0  0  0  0  0  0  0  0  0  0
   45.0912   32.0185   35.8464 H   0  0  0  0  0  0  0  0  0  0  0  0
   47.2434   31.7773   36.4939 H   0  0  0  0  0  0  0  0  0  0  0  0
   47.1524   33.5381   35.9040 H   0  0  0  0  0  0  0  0  0  0  0  0
   47.5762   34.3807   37.7974 H   0  0  0  0  0  0  0  0  0  0  0  0
   49.3513   32.2188   39.4241 H   0  0  0  0  0  0  0  0  0  0  0  0
   47.1804   31.4572   46.3550 H   0  0  0  0  0  0  0  0  0  0  0  0
   44.0553   35.8803   45.6415 H   0  0  0  0  0  0  0  0  0  0  0  0
   43.9134   34.9480   47.1558 H   0  0  0  0  0  0  0  0  0  0  0  0
   44.9447   33.8935   48.2097 H   0  0  0  0  0  0  0  0  0  0  0  0
   44.2695   32.3044   47.6478 H   0  0  0  0  0  0  0  0  0  0  0  0
   45.8011   32.3994   49.7844 H   0  0  0  0  0  0  0  0  0  0  0  0
   45.9979   31.0800   48.5815 H   0  0  0  0  0  0  0  0  0  0  0  0
   47.1332   32.4720   48.5815 H   0  0  0  0  0  0  0  0  0  0  0  0
  1 18  1  0
  2  1  2  0
  3  2  1  0
  4  5  1  0
  4  3  2  0
  5  6  2  0
  6  1  1  0
  7  5  1  0
  8  7  1  0
  9  8  1  0
 10 11  1  0
 10  9  1  0
 11 12  1  0
 12 13  1  0
 12  7  1  0
 14 15  2  0
 15 21  1  0
 16 20  1  0
 16 15  1  0
 17 16  2  0
 18 17  1  0
 18 19  2  0
 19 14  1  0
 21 22  1  0
  2 23  1  0
  3 24  1  0
  4 25  1  0
  7 26  1  1
  8 27  1  0
  8 28  1  0
  9 29  1  0
  9 30  1  0
 10 31  1  0
 10 32  1  0
 11 33  1  0
 11 34  1  0
 12 35  1  6
 13 36  1  0
 14 37  1  0
 20 38  1  0
 20 39  1  0
 21 40  1  0
 21 41  1  0
 22 42  1  0
 22 43  1  0
 22 44  1  0
M  ISO  8  23  14  24  14  25  14  26  13  27  13  28  13  29  13  30  13
M  ISO  8  31  13  32  13  33  13  34  13  35  13  36  11  37  14  40   8
M  ISO  4  41   8  42   8  43   8  44   8
M  END
>  <minimizedAffinity>  (1) 
-6.22266388

>  <minimizedRMSD>  (1) 
0.434113145

$$$$
