
     RDKit          3D

 41 43  0  0  0  0  0  0  0  0999 V2000
   46.9860   34.1070   42.6090 C   0  0  0  0  0  0  0  0  0  0  0  0
   48.3400   34.5580   42.6760 C   0  0  0  0  0  0  0  0  0  0  0  0
   48.6750   35.5760   41.6230 C   0  0  0  0  0  0  0  0  0  0  0  0
   48.5590   34.8930   40.2530 C   0  0  0  0  0  0  0  0  0  0  0  0
   47.2720   34.1420   40.1020 C   0  0  0  0  0  0  0  0  0  0  0  0
   46.3250   34.4040   41.2460 C   0  0  0  0  0  0  0  0  0  0  0  0
   46.0570   34.5710   43.6550 C   0  0  0  0  0  0  0  0  0  0  0  0
   46.0120   33.7710   44.7860 C   0  0  0  0  0  0  0  0  0  0  0  0
   45.1890   34.2570   45.7910 C   0  0  0  0  0  0  0  0  0  0  0  0
   44.5160   35.4270   45.6030 N   0  0  0  0  0  0  0  0  0  0  0  0
   44.5730   36.1720   44.5150 C   0  0  0  0  0  0  0  0  0  0  0  0
   45.3510   35.7160   43.5610 N   0  0  0  0  0  0  0  0  0  0  0  0
   46.4480   32.6360   45.4990 N   0  0  0  0  0  0  0  0  0  0  0  0
   46.7300   32.5700   46.9550 C   0  0  0  0  0  0  0  0  0  0  0  0
   47.6790   31.4910   47.3200 C   0  0  0  0  0  0  0  0  0  0  0  0
   47.4210   30.2060   46.5540 C   0  0  0  0  0  0  0  0  0  0  0  0
   47.6800   30.5600   45.0980 C   0  0  0  0  0  0  0  0  0  0  0  0
   46.5500   31.4450   44.6610 C   0  0  0  0  0  0  0  0  0  0  0  0
   47.1311   33.0293   42.7745 H   0  0  0  0  0  0  0  0  0  0  0  0
   48.5105   35.0083   43.6650 H   0  0  0  0  0  0  0  0  0  0  0  0
   48.9856   33.6841   42.5045 H   0  0  0  0  0  0  0  0  0  0  0  0
   47.9711   36.4193   41.6810 H   0  0  0  0  0  0  0  0  0  0  0  0
   49.6939   35.9623   41.7737 H   0  0  0  0  0  0  0  0  0  0  0  0
   48.6147   35.6617   39.4682 H   0  0  0  0  0  0  0  0  0  0  0  0
   49.3837   34.1704   40.1652 H   0  0  0  0  0  0  0  0  0  0  0  0
   46.7888   34.4514   39.1635 H   0  0  0  0  0  0  0  0  0  0  0  0
   47.5057   33.0671   40.0950 H   0  0  0  0  0  0  0  0  0  0  0  0
   46.0177   35.4599   41.2206 H   0  0  0  0  0  0  0  0  0  0  0  0
   45.4557   33.7395   41.1327 H   0  0  0  0  0  0  0  0  0  0  0  0
   45.0801   33.7014   46.7341 H   0  0  0  0  0  0  0  0  0  0  0  0
   44.0076   37.1102   44.4146 H   0  0  0  0  0  0  0  0  0  0  0  0
   47.1573   33.5328   47.2719 H   0  0  0  0  0  0  0  0  0  0  0  0
   45.7783   32.3522   47.4617 H   0  0  0  0  0  0  0  0  0  0  0  0
   48.7018   31.8322   47.1022 H   0  0  0  0  0  0  0  0  0  0  0  0
   47.5439   31.2750   48.3901 H   0  0  0  0  0  0  0  0  0  0  0  0
   48.1061   29.4126   46.8872 H   0  0  0  0  0  0  0  0  0  0  0  0
   46.4007   29.8268   46.7129 H   0  0  0  0  0  0  0  0  0  0  0  0
   48.6375   31.0928   45.0021 H   0  0  0  0  0  0  0  0  0  0  0  0
   47.7370   29.6551   44.4752 H   0  0  0  0  0  0  0  0  0  0  0  0
   46.7207   31.7545   43.6193 H   0  0  0  0  0  0  0  0  0  0  0  0
   45.6121   30.8775   44.7524 H   0  0  0  0  0  0  0  0  0  0  0  0
  1  2  1  0
  1  7  1  0
  3  2  1  0
  4  3  1  0
  5  4  1  0
  5  6  1  0
  6  1  1  0
  7  8  1  0
  8 13  1  0
  8  9  2  0
 10  9  1  0
 11 10  2  0
 12  7  2  0
 12 11  1  0
 13 14  1  0
 14 15  1  0
 16 15  1  0
 17 16  1  0
 18 17  1  0
 18 13  1  0
  1 19  1  0
  2 20  1  0
  2 21  1  0
  3 22  1  0
  3 23  1  0
  4 24  1  0
  4 25  1  0
  5 26  1  0
  5 27  1  0
  6 28  1  0
  6 29  1  0
  9 30  1  0
 11 31  1  0
 14 32  1  0
 14 33  1  0
 15 34  1  0
 15 35  1  0
 16 36  1  0
 16 37  1  0
 17 38  1  0
 17 39  1  0
 18 40  1  0
 18 41  1  0
M  ISO  8  19  13  20  13  21  13  22  13  23  13  24  13  25  13  26  13
M  ISO  8  27  13  28  13  29  13  30  14  31  14  32  13  33  13  34  13
M  ISO  7  35  13  36  13  37  13  38  13  39  13  40  13  41  13
M  END
>  <minimizedAffinity>  (1) 
-5.82248926

>  <minimizedRMSD>  (1) 
6.19229937

$$$$
