
     RDKit          3D

 36 38  0  0  0  0  0  0  0  0999 V2000
   46.0240   32.7210   43.3580 C   0  0  0  0  0  0  0  0  0  0  0  0
   47.0050   32.7070   42.3800 C   0  0  0  0  0  0  0  0  0  0  0  0
   48.1340   31.9710   42.6780 C   0  0  0  0  0  0  0  0  0  0  0  0
   48.1990   31.3300   43.8730 N   0  0  0  0  0  0  0  0  0  0  0  0
   47.2570   31.3450   44.7980 C   0  0  0  0  0  0  0  0  0  0  0  0
   46.1780   32.0480   44.5140 N   0  0  0  0  0  0  0  0  0  0  0  0
   44.8700   33.5890   43.0710 C   0  0  0  0  0  0  0  0  0  0  0  0
   44.0390   33.2420   41.9670 C   0  0  0  0  0  0  0  0  0  0  0  0
   44.1800   34.1530   40.7830 C   0  0  0  0  0  0  0  0  0  0  0  0
   43.7200   35.5540   41.2050 C   0  0  0  0  0  0  0  0  0  0  0  0
   44.3360   35.9920   42.4970 C   0  0  0  0  0  0  0  0  0  0  0  0
   45.4030   35.0390   42.9590 C   0  0  0  0  0  0  0  0  0  0  0  0
   47.3280   33.1710   41.0960 N   0  0  0  0  0  0  0  0  0  0  0  0
   46.9870   32.6010   39.8830 C   0  0  0  0  0  0  0  0  0  0  0  0
   47.3930   33.1380   38.6840 C   0  0  0  0  0  0  0  0  0  0  0  0
   48.1550   34.2720   38.7750 C   0  0  0  0  0  0  0  0  0  0  0  0
   48.5480   34.7990   37.6990 O   0  0  0  0  0  0  0  0  0  0  0  0
   48.5380   34.9030   39.8970 N   0  0  0  0  0  0  0  0  0  0  0  0
   48.1010   34.3170   41.0530 C   0  0  0  0  0  0  0  0  0  0  0  0
   48.4650   34.9120   42.1210 O   0  0  0  0  0  0  0  0  0  0  0  0
   48.9654   31.9051   41.9608 H   0  0  0  0  0  0  0  0  0  0  0  0
   47.3658   30.8032   45.7491 H   0  0  0  0  0  0  0  0  0  0  0  0
   44.1701   33.4566   43.9092 H   0  0  0  0  0  0  0  0  0  0  0  0
   44.2956   32.2206   41.6493 H   0  0  0  0  0  0  0  0  0  0  0  0
   42.9987   33.3310   42.3132 H   0  0  0  0  0  0  0  0  0  0  0  0
   43.5544   33.7884   39.9550 H   0  0  0  0  0  0  0  0  0  0  0  0
   45.2263   34.1803   40.4445 H   0  0  0  0  0  0  0  0  0  0  0  0
   44.0016   36.2700   40.4188 H   0  0  0  0  0  0  0  0  0  0  0  0
   42.6298   35.5201   41.3478 H   0  0  0  0  0  0  0  0  0  0  0  0
   44.7834   36.9873   42.3586 H   0  0  0  0  0  0  0  0  0  0  0  0
   43.5454   36.0163   43.2615 H   0  0  0  0  0  0  0  0  0  0  0  0
   46.2339   35.0583   42.2384 H   0  0  0  0  0  0  0  0  0  0  0  0
   45.7377   35.3583   43.9570 H   0  0  0  0  0  0  0  0  0  0  0  0
   46.3716   31.6893   39.8771 H   0  0  0  0  0  0  0  0  0  0  0  0
   47.1239   32.6872   37.7174 H   0  0  0  0  0  0  0  0  0  0  0  0
   49.1132   35.7574   39.8877 H   0  0  0  0  0  0  0  0  0  0  0  0
  1  6  2  0
  2  3  2  0
  2  1  1  0
  3  4  1  0
  4  5  2  0
  6  5  1  0
  7  1  1  0
  8  7  1  0
  9 10  1  0
  9  8  1  0
 10 11  1  0
 11 12  1  0
 12  7  1  0
 13  2  1  0
 14 13  1  0
 15 16  1  0
 15 14  2  0
 16 18  1  0
 17 16  2  0
 18 19  1  0
 19 13  1  0
 19 20  2  0
  3 21  1  0
  5 22  1  0
  7 23  1  0
  8 24  1  0
  8 25  1  0
  9 26  1  0
  9 27  1  0
 10 28  1  0
 10 29  1  0
 11 30  1  0
 11 31  1  0
 12 32  1  0
 12 33  1  0
 14 34  1  0
 15 35  1  0
 18 36  1  0
M  ISO  8  21  14  22  14  23  13  24  13  25  13  26  13  27  13  28  13
M  ISO  8  29  13  30  13  31  13  32  13  33  13  34  14  35  14  36   9
M  END
>  <minimizedAffinity>  (1) 
-4.85819912

>  <minimizedRMSD>  (1) 
2.70052958

$$$$
