
     RDKit          3D

 42 44  0  0  0  0  0  0  0  0999 V2000
   46.1420   31.9850   45.8310 C   0  0  0  0  0  0  0  0  0  0  0  0
   46.6090   32.9350   46.7460 C   0  0  0  0  0  0  0  0  0  0  0  0
   47.1840   32.2930   47.9930 C   0  0  0  0  0  0  0  0  0  0  0  0
   46.0700   31.5850   48.7480 C   0  0  0  0  0  0  0  0  0  0  0  0
   45.2390   30.7430   47.8540 C   0  0  0  0  0  0  0  0  0  0  0  0
   45.8840   30.6000   46.5050 C   0  0  0  0  0  0  0  0  0  0  0  0
   46.8530   31.7340   44.5760 C   0  0  0  0  0  0  0  0  0  0  0  0
   46.4800   32.6060   43.5500 C   0  0  0  0  0  0  0  0  0  0  0  0
   47.2890   32.4060   42.4810 C   0  0  0  0  0  0  0  0  0  0  0  0
   48.2930   31.4980   42.4180 N   0  0  0  0  0  0  0  0  0  0  0  0
   48.6060   30.6880   43.4010 C   0  0  0  0  0  0  0  0  0  0  0  0
   47.8690   30.8250   44.4800 N   0  0  0  0  0  0  0  0  0  0  0  0
   45.5350   33.5520   43.0740 C   0  0  0  0  0  0  0  0  0  0  0  0
   45.3180   33.4290   41.5200 C   0  0  0  0  0  0  0  0  0  0  0  0
   44.6130   34.6260   41.0060 C   0  0  0  0  0  0  0  0  0  0  0  0
   43.9300   35.4770   42.0240 C   0  0  0  0  0  0  0  0  0  0  0  0
   44.9410   36.0110   42.9890 C   0  0  0  0  0  0  0  0  0  0  0  0
   46.0740   34.9910   43.1360 C   0  0  0  0  0  0  0  0  0  0  0  0
   45.2310   32.5132   45.5131 H   0  0  0  0  0  0  0  0  0  0  0  0
   47.3932   33.5366   46.2632 H   0  0  0  0  0  0  0  0  0  0  0  0
   45.7561   33.5597   47.0498 H   0  0  0  0  0  0  0  0  0  0  0  0
   47.9572   31.5641   47.7088 H   0  0  0  0  0  0  0  0  0  0  0  0
   47.6326   33.0660   48.6342 H   0  0  0  0  0  0  0  0  0  0  0  0
   46.5174   30.9454   49.5231 H   0  0  0  0  0  0  0  0  0  0  0  0
   45.4195   32.3532   49.1916 H   0  0  0  0  0  0  0  0  0  0  0  0
   45.1204   29.7465   48.3045 H   0  0  0  0  0  0  0  0  0  0  0  0
   44.2583   31.2247   47.7268 H   0  0  0  0  0  0  0  0  0  0  0  0
   45.2229   30.0068   45.8562 H   0  0  0  0  0  0  0  0  0  0  0  0
   46.8555   30.1029   46.6435 H   0  0  0  0  0  0  0  0  0  0  0  0
   47.1166   33.0314   41.5926 H   0  0  0  0  0  0  0  0  0  0  0  0
   49.4207   29.9525   43.3278 H   0  0  0  0  0  0  0  0  0  0  0  0
   44.6463   33.3587   43.6928 H   0  0  0  0  0  0  0  0  0  0  0  0
   46.2951   33.3411   41.0224 H   0  0  0  0  0  0  0  0  0  0  0  0
   44.7092   32.5368   41.3119 H   0  0  0  0  0  0  0  0  0  0  0  0
   45.3521   35.2531   40.4859 H   0  0  0  0  0  0  0  0  0  0  0  0
   43.8111   34.2400   40.3596 H   0  0  0  0  0  0  0  0  0  0  0  0
   43.4247   36.3150   41.5216 H   0  0  0  0  0  0  0  0  0  0  0  0
   43.1882   34.8734   42.5676 H   0  0  0  0  0  0  0  0  0  0  0  0
   45.3464   36.9611   42.6110 H   0  0  0  0  0  0  0  0  0  0  0  0
   44.4674   36.1852   43.9664 H   0  0  0  0  0  0  0  0  0  0  0  0
   46.5737   35.1461   44.1036 H   0  0  0  0  0  0  0  0  0  0  0  0
   46.7830   35.1345   42.3073 H   0  0  0  0  0  0  0  0  0  0  0  0
  1  6  1  0
  1  2  1  0
  2  3  1  0
  3  4  1  0
  5  4  1  0
  6  5  1  0
  7  1  1  0
  8  7  1  0
  9  8  2  0
 10  9  1  0
 10 11  2  0
 11 12  1  0
 12  7  2  0
 13 18  1  0
 13  8  1  0
 14 13  1  0
 15 14  1  0
 15 16  1  0
 16 17  1  0
 17 18  1  0
  1 19  1  0
  2 20  1  0
  2 21  1  0
  3 22  1  0
  3 23  1  0
  4 24  1  0
  4 25  1  0
  5 26  1  0
  5 27  1  0
  6 28  1  0
  6 29  1  0
  9 30  1  0
 11 31  1  0
 13 32  1  0
 14 33  1  0
 14 34  1  0
 15 35  1  0
 15 36  1  0
 16 37  1  0
 16 38  1  0
 17 39  1  0
 17 40  1  0
 18 41  1  0
 18 42  1  0
M  ISO  8  19  13  20  13  21  13  22  13  23  13  24  13  25  13  26  13
M  ISO  8  27  13  28  13  29  13  30  14  31  14  32  13  33  13  34  13
M  ISO  8  35  13  36  13  37  13  38  13  39  13  40  13  41  13  42  13
M  END
>  <minimizedAffinity>  (1) 
-4.6882391

>  <minimizedRMSD>  (1) 
4.63490677

$$$$
