
     RDKit          3D

 35 36  0  0  0  0  0  0  0  0999 V2000
   45.5660   33.4720   43.1120 C   0  0  0  0  0  0  0  0  0  0  0  0
   44.6510   33.4100   42.0060 C   0  0  0  0  0  0  0  0  0  0  0  0
   44.5810   34.6370   41.1960 C   0  0  0  0  0  0  0  0  0  0  0  0
   44.1510   35.8270   42.0680 C   0  0  0  0  0  0  0  0  0  0  0  0
   44.8180   35.8560   43.4090 C   0  0  0  0  0  0  0  0  0  0  0  0
   45.9690   34.8970   43.4890 C   0  0  0  0  0  0  0  0  0  0  0  0
   46.7730   32.6610   43.0550 C   0  0  0  0  0  0  0  0  0  0  0  0
   47.7010   33.0810   42.1280 C   0  0  0  0  0  0  0  0  0  0  0  0
   48.8870   32.3870   42.0340 C   0  0  0  0  0  0  0  0  0  0  0  0
   49.0440   31.3140   42.8940 N   0  0  0  0  0  0  0  0  0  0  0  0
   48.1460   30.9220   43.7770 C   0  0  0  0  0  0  0  0  0  0  0  0
   47.0300   31.6100   43.8320 N   0  0  0  0  0  0  0  0  0  0  0  0
   48.0780   34.0840   41.2330 C   0  0  0  0  0  0  0  0  0  0  0  0
   48.5250   35.1430   40.6520 C   0  0  0  0  0  0  0  0  0  0  0  0
   49.1250   36.0890   41.6260 C   0  0  0  0  0  0  0  0  0  0  0  0
   44.9359   33.0134   43.8884 H   0  0  0  0  0  0  0  0  0  0  0  0
   44.9620   32.5836   41.3499 H   0  0  0  0  0  0  0  0  0  0  0  0
   43.6500   33.2659   42.4387 H   0  0  0  0  0  0  0  0  0  0  0  0
   45.5710   34.8432   40.7631 H   0  0  0  0  0  0  0  0  0  0  0  0
   43.8416   34.4950   40.3940 H   0  0  0  0  0  0  0  0  0  0  0  0
   44.3993   36.7568   41.5353 H   0  0  0  0  0  0  0  0  0  0  0  0
   43.0703   35.7244   42.2459 H   0  0  0  0  0  0  0  0  0  0  0  0
   45.1907   36.8736   43.5976 H   0  0  0  0  0  0  0  0  0  0  0  0
   44.0751   35.5563   44.1628 H   0  0  0  0  0  0  0  0  0  0  0  0
   46.3558   34.8942   44.5188 H   0  0  0  0  0  0  0  0  0  0  0  0
   46.7342   35.2303   42.7725 H   0  0  0  0  0  0  0  0  0  0  0  0
   49.6682   32.6706   41.3134 H   0  0  0  0  0  0  0  0  0  0  0  0
   48.3242   30.0594   44.4359 H   0  0  0  0  0  0  0  0  0  0  0  0
   48.6640   33.4009   40.6005 H   0  0  0  0  0  0  0  0  0  0  0  0
   47.3222   34.7251   41.7103 H   0  0  0  0  0  0  0  0  0  0  0  0
   49.2916   34.8514   39.9190 H   0  0  0  0  0  0  0  0  0  0  0  0
   47.6809   35.6468   40.1584 H   0  0  0  0  0  0  0  0  0  0  0  0
   48.9087   35.7480   42.6492 H   0  0  0  0  0  0  0  0  0  0  0  0
   50.2139   36.1289   41.4753 H   0  0  0  0  0  0  0  0  0  0  0  0
   48.6970   37.0910   41.4753 H   0  0  0  0  0  0  0  0  0  0  0  0
  1  6  1  0
  2  1  1  0
  3  2  1  0
  3  4  1  0
  4  5  1  0
  5  6  1  0
  7  1  1  0
  7 12  1  0
  8  7  2  0
  9  8  1  0
  9 10  2  0
 10 11  1  0
 11 12  2  0
 13  8  1  0
 14 13  1  0
 14 15  1  0
  1 16  1  0
  2 17  1  0
  2 18  1  0
  3 19  1  0
  3 20  1  0
  4 21  1  0
  4 22  1  0
  5 23  1  0
  5 24  1  0
  6 25  1  0
  6 26  1  0
  9 27  1  0
 11 28  1  0
 13 29  1  0
 13 30  1  0
 14 31  1  0
 14 32  1  0
 15 33  1  0
 15 34  1  0
 15 35  1  0
M  ISO  8  16  13  17  13  18  13  19  13  20  13  21  13  22  13  23  13
M  ISO  8  24  13  25  13  26  13  27  14  28  14  29   8  30   8  31   8
M  ISO  4  32   8  33   8  34   8  35   8
M  END
>  <minimizedAffinity>  (1) 
-4.20874405

>  <minimizedRMSD>  (1) 
1.80362523

$$$$
