
     RDKit          3D

 27 28  0  0  0  0  0  0  0  0999 V2000
   47.0720   32.9260   42.7120 C   0  0  0  0  0  0  0  0  0  0  0  0
   46.2980   33.0920   41.5170 C   0  0  0  0  0  0  0  0  0  0  0  0
   45.9700   34.5390   41.2270 C   0  0  0  0  0  0  0  0  0  0  0  0
   45.0250   34.9890   42.3580 C   0  0  0  0  0  0  0  0  0  0  0  0
   45.6200   34.7270   43.7050 C   0  0  0  0  0  0  0  0  0  0  0  0
   47.0280   34.1920   43.6120 C   0  0  0  0  0  0  0  0  0  0  0  0
   48.4630   32.5230   42.5740 C   0  0  0  0  0  0  0  0  0  0  0  0
   49.3390   33.5790   42.3480 C   0  0  0  0  0  0  0  0  0  0  0  0
   50.6900   33.2940   42.2770 C   0  0  0  0  0  0  0  0  0  0  0  0
   51.0780   31.9740   42.4330 N   0  0  0  0  0  0  0  0  0  0  0  0
   50.2180   30.9800   42.6450 C   0  0  0  0  0  0  0  0  0  0  0  0
   48.9260   31.2780   42.7110 N   0  0  0  0  0  0  0  0  0  0  0  0
   49.2580   35.2890   42.0300 S   0  0  0  0  0  0  0  0  0  0  0  0
   46.5619   32.0665   43.1715 H   0  0  0  0  0  0  0  0  0  0  0  0
   46.8685   32.6844   40.6694 H   0  0  0  0  0  0  0  0  0  0  0  0
   45.3464   32.5597   41.6625 H   0  0  0  0  0  0  0  0  0  0  0  0
   46.8864   35.1474   41.2285 H   0  0  0  0  0  0  0  0  0  0  0  0
   45.5039   34.6585   40.2378 H   0  0  0  0  0  0  0  0  0  0  0  0
   44.8327   36.0672   42.2556 H   0  0  0  0  0  0  0  0  0  0  0  0
   44.0900   34.4154   42.2758 H   0  0  0  0  0  0  0  0  0  0  0  0
   45.6355   35.6680   44.2745 H   0  0  0  0  0  0  0  0  0  0  0  0
   45.0021   33.9665   44.2050 H   0  0  0  0  0  0  0  0  0  0  0  0
   47.3835   33.9319   44.6199 H   0  0  0  0  0  0  0  0  0  0  0  0
   47.6733   34.9651   43.1695 H   0  0  0  0  0  0  0  0  0  0  0  0
   51.4308   34.0882   42.1027 H   0  0  0  0  0  0  0  0  0  0  0  0
   50.5673   29.9435   42.7619 H   0  0  0  0  0  0  0  0  0  0  0  0
   49.2256   35.9731   43.2165 H   0  0  0  0  0  0  0  0  0  0  0  0
  1  6  1  0
  2  1  1  0
  3  2  1  0
  3  4  1  0
  4  5  1  0
  6  5  1  0
  7 12  1  0
  7  1  1  0
  8  7  2  0
  9  8  1  0
  9 10  2  0
 10 11  1  0
 11 12  2  0
 13  8  1  0
  1 14  1  0
  2 15  1  0
  2 16  1  0
  3 17  1  0
  3 18  1  0
  4 19  1  0
  4 20  1  0
  5 21  1  0
  5 22  1  0
  6 23  1  0
  6 24  1  0
  9 25  1  0
 11 26  1  0
 13 27  1  0
M  ISO  8  14  13  15  13  16  13  17  13  18  13  19  13  20  13  21  13
M  ISO  6  22  13  23  13  24  13  25  14  26  14  27  11
M  END
>  <minimizedAffinity>  (1) 
-3.42669702

>  <minimizedRMSD>  (1) 
0.898865223

$$$$
