
     RDKit          3D

 29 30  0  0  0  0  0  0  0  0999 V2000
   47.0980   32.7520   42.7390 C   0  0  0  0  0  0  0  0  0  0  0  0
   46.4630   33.0450   41.4390 C   0  0  0  0  0  0  0  0  0  0  0  0
   46.0020   34.3840   41.3190 C   0  0  0  0  0  0  0  0  0  0  0  0
   45.1970   34.9440   42.4850 C   0  0  0  0  0  0  0  0  0  0  0  0
   45.6480   34.4600   43.8280 C   0  0  0  0  0  0  0  0  0  0  0  0
   46.9690   33.7310   43.8270 C   0  0  0  0  0  0  0  0  0  0  0  0
   48.4530   32.2590   42.6360 C   0  0  0  0  0  0  0  0  0  0  0  0
   49.2840   33.1380   41.9110 C   0  0  0  0  0  0  0  0  0  0  0  0
   50.5600   32.6150   41.6920 C   0  0  0  0  0  0  0  0  0  0  0  0
   50.9080   31.3820   42.1640 N   0  0  0  0  0  0  0  0  0  0  0  0
   50.0620   30.5920   42.8640 C   0  0  0  0  0  0  0  0  0  0  0  0
   48.8220   31.0310   43.1040 N   0  0  0  0  0  0  0  0  0  0  0  0
   49.2290   34.4500   41.4040 C   0  0  0  0  0  0  0  0  0  0  0  0
   46.4422   31.9330   43.0696 H   0  0  0  0  0  0  0  0  0  0  0  0
   47.1986   32.8580   40.6428 H   0  0  0  0  0  0  0  0  0  0  0  0
   45.5815   32.3922   41.3566 H   0  0  0  0  0  0  0  0  0  0  0  0
   46.8836   35.0280   41.1844 H   0  0  0  0  0  0  0  0  0  0  0  0
   45.3039   34.3713   40.4690 H   0  0  0  0  0  0  0  0  0  0  0  0
   45.2805   36.0407   42.4672 H   0  0  0  0  0  0  0  0  0  0  0  0
   44.1625   34.5943   42.3530 H   0  0  0  0  0  0  0  0  0  0  0  0
   45.7386   35.3315   44.4931 H   0  0  0  0  0  0  0  0  0  0  0  0
   44.8937   33.7336   44.1647 H   0  0  0  0  0  0  0  0  0  0  0  0
   47.0754   33.2021   44.7856 H   0  0  0  0  0  0  0  0  0  0  0  0
   47.7548   34.4861   43.6773 H   0  0  0  0  0  0  0  0  0  0  0  0
   51.2975   33.2065   41.1296 H   0  0  0  0  0  0  0  0  0  0  0  0
   50.3880   29.6069   43.2290 H   0  0  0  0  0  0  0  0  0  0  0  0
   49.1990   35.1650   42.2394 H   0  0  0  0  0  0  0  0  0  0  0  0
   50.1199   34.6428   40.7882 H   0  0  0  0  0  0  0  0  0  0  0  0
   48.3251   34.5675   40.7882 H   0  0  0  0  0  0  0  0  0  0  0  0
  1  6  1  0
  2  1  1  0
  3  2  1  0
  3  4  1  0
  4  5  1  0
  6  5  1  0
  7  1  1  0
  7 12  1  0
  8  7  2  0
  9  8  1  0
  9 10  2  0
 10 11  1  0
 11 12  2  0
 13  8  1  0
  1 14  1  0
  2 15  1  0
  2 16  1  0
  3 17  1  0
  3 18  1  0
  4 19  1  0
  4 20  1  0
  5 21  1  0
  5 22  1  0
  6 23  1  0
  6 24  1  0
  9 25  1  0
 11 26  1  0
 13 27  1  0
 13 28  1  0
 13 29  1  0
M  ISO  8  14  13  15  13  16  13  17  13  18  13  19  13  20  13  21  13
M  ISO  8  22  13  23  13  24  13  25  14  26  14  27   8  28   8  29   8
M  END
>  <minimizedAffinity>  (1) 
-3.15774775

>  <minimizedRMSD>  (1) 
0.318805397

$$$$
