
     RDKit          3D

 31 32  0  0  0  0  0  0  0  0999 V2000
   46.2910   33.6820   42.4670 C   0  0  0  0  0  0  0  0  0  0  0  0
   45.0660   33.2700   41.7770 C   0  0  0  0  0  0  0  0  0  0  0  0
   44.4360   34.3490   41.0230 C   0  0  0  0  0  0  0  0  0  0  0  0
   44.1160   35.5470   41.9400 C   0  0  0  0  0  0  0  0  0  0  0  0
   45.2240   35.8850   42.8680 C   0  0  0  0  0  0  0  0  0  0  0  0
   46.4960   35.1640   42.5310 C   0  0  0  0  0  0  0  0  0  0  0  0
   47.5230   33.0380   42.0150 C   0  0  0  0  0  0  0  0  0  0  0  0
   47.8930   33.3970   40.7260 C   0  0  0  0  0  0  0  0  0  0  0  0
   49.0630   32.8700   40.2210 C   0  0  0  0  0  0  0  0  0  0  0  0
   49.7900   32.0200   41.0210 N   0  0  0  0  0  0  0  0  0  0  0  0
   49.4040   31.6890   42.2650 C   0  0  0  0  0  0  0  0  0  0  0  0
   48.2770   32.2000   42.7500 N   0  0  0  0  0  0  0  0  0  0  0  0
   47.3790   34.1730   39.7600 O   0  0  0  0  0  0  0  0  0  0  0  0
   46.9900   33.6330   38.5120 C   0  0  0  0  0  0  0  0  0  0  0  0
   46.2720   32.5830   38.4270 O   0  0  0  0  0  0  0  0  0  0  0  0
   47.3710   34.2200   37.2820 N   0  0  0  0  0  0  0  0  0  0  0  0
   46.0930   33.3125   43.4840 H   0  0  0  0  0  0  0  0  0  0  0  0
   45.3150   32.4564   41.0799 H   0  0  0  0  0  0  0  0  0  0  0  0
   44.3497   32.9510   42.5485 H   0  0  0  0  0  0  0  0  0  0  0  0
   45.1190   34.6779   40.2259 H   0  0  0  0  0  0  0  0  0  0  0  0
   43.4954   33.9746   40.5927 H   0  0  0  0  0  0  0  0  0  0  0  0
   43.9080   36.4241   41.3096 H   0  0  0  0  0  0  0  0  0  0  0  0
   43.2486   35.2654   42.5551 H   0  0  0  0  0  0  0  0  0  0  0  0
   45.4085   36.9682   42.8174 H   0  0  0  0  0  0  0  0  0  0  0  0
   44.9207   35.5731   43.8783 H   0  0  0  0  0  0  0  0  0  0  0  0
   47.2476   35.3871   43.3025 H   0  0  0  0  0  0  0  0  0  0  0  0
   46.8335   35.5070   41.5418 H   0  0  0  0  0  0  0  0  0  0  0  0
   49.4052   33.1225   39.2065 H   0  0  0  0  0  0  0  0  0  0  0  0
   50.0127   31.0042   42.8737 H   0  0  0  0  0  0  0  0  0  0  0  0
   47.0675   33.7967   36.3934 H   0  0  0  0  0  0  0  0  0  0  0  0
   47.9518   35.0706   37.2753 H   0  0  0  0  0  0  0  0  0  0  0  0
  1  6  1  0
  2  1  1  0
  3  2  1  0
  3  4  1  0
  4  5  1  0
  6  5  1  0
  7  1  1  0
  7 12  1  0
  8  7  2  0
  9  8  1  0
  9 10  2  0
 10 11  1  0
 11 12  2  0
 13  8  1  0
 14 13  1  0
 15 14  2  0
 16 14  1  0
  1 17  1  0
  2 18  1  0
  2 19  1  0
  3 20  1  0
  3 21  1  0
  4 22  1  0
  4 23  1  0
  5 24  1  0
  5 25  1  0
  6 26  1  0
  6 27  1  0
  9 28  1  0
 11 29  1  0
 16 30  1  0
 16 31  1  0
M  ISO  8  17  13  18  13  19  13  20  13  21  13  22  13  23  13  24  13
M  ISO  5  25  13  26  13  27  13  28  14  29  14
M  END
>  <minimizedAffinity>  (1) 
-3.77550173

>  <minimizedRMSD>  (1) 
2.32297421

$$$$
