
     RDKit          3D

 45 47  0  0  0  0  0  0  0  0999 V2000
   46.0480   34.5690   43.6050 C   0  0  0  0  0  0  0  0  0  0  0  0
   46.0420   33.7790   44.7470 C   0  0  0  0  0  0  0  0  0  0  0  0
   45.2450   34.2210   45.7850 C   0  0  0  0  0  0  0  0  0  0  0  0
   44.5230   35.3930   45.6280 N   0  0  0  0  0  0  0  0  0  0  0  0
   44.5520   36.1220   44.5240 C   0  0  0  0  0  0  0  0  0  0  0  0
   45.3130   35.6980   43.5310 N   0  0  0  0  0  0  0  0  0  0  0  0
   46.9460   34.0970   42.5370 C   0  0  0  0  0  0  0  0  0  0  0  0
   48.3060   34.6050   42.5920 C   0  0  0  0  0  0  0  0  0  0  0  0
   48.6510   35.4760   41.4570 C   0  0  0  0  0  0  0  0  0  0  0  0
   48.4310   34.7800   40.1210 C   0  0  0  0  0  0  0  0  0  0  0  0
   47.1650   34.0060   40.0690 C   0  0  0  0  0  0  0  0  0  0  0  0
   46.2380   34.3610   41.2130 C   0  0  0  0  0  0  0  0  0  0  0  0
   46.6290   32.6740   45.0970 O   0  0  0  0  0  0  0  0  0  0  0  0
   47.1390   32.1610   46.2610 C   0  0  0  0  0  0  0  0  0  0  0  0
   46.5860   30.8420   46.6860 C   0  0  0  0  0  0  0  0  0  0  0  0
   47.2380   30.3680   47.8420 N   0  0  0  0  0  0  0  0  0  0  0  0
   47.6430   31.2860   48.8350 C   0  0  0  0  0  0  0  0  0  0  0  0
   48.8130   30.6500   49.5640 C   0  0  0  0  0  0  0  0  0  0  0  0
   49.4110   29.7440   48.5200 C   0  0  0  0  0  0  0  0  0  0  0  0
   48.1890   29.3250   47.7130 C   0  0  0  0  0  0  0  0  0  0  0  0
   45.1844   33.6503   46.7234 H   0  0  0  0  0  0  0  0  0  0  0  0
   43.9638   37.0474   44.4364 H   0  0  0  0  0  0  0  0  0  0  0  0
   47.1222   33.0196   42.6719 H   0  0  0  0  0  0  0  0  0  0  0  0
   48.4260   35.1801   43.5219 H   0  0  0  0  0  0  0  0  0  0  0  0
   48.9791   33.7360   42.5507 H   0  0  0  0  0  0  0  0  0  0  0  0
   48.0220   36.3775   41.4963 H   0  0  0  0  0  0  0  0  0  0  0  0
   49.7175   35.7334   41.5362 H   0  0  0  0  0  0  0  0  0  0  0  0
   48.4079   35.5426   39.3286 H   0  0  0  0  0  0  0  0  0  0  0  0
   49.2572   34.0671   39.9826 H   0  0  0  0  0  0  0  0  0  0  0  0
   46.6553   34.2216   39.1184 H   0  0  0  0  0  0  0  0  0  0  0  0
   47.4150   32.9380   40.1519 H   0  0  0  0  0  0  0  0  0  0  0  0
   45.9652   35.4247   41.1481 H   0  0  0  0  0  0  0  0  0  0  0  0
   45.3277   33.7463   41.1534 H   0  0  0  0  0  0  0  0  0  0  0  0
   48.2253   32.0458   46.1317 H   0  0  0  0  0  0  0  0  0  0  0  0
   46.8556   32.8724   47.0507 H   0  0  0  0  0  0  0  0  0  0  0  0
   45.5127   30.9541   46.8992 H   0  0  0  0  0  0  0  0  0  0  0  0
   46.7448   30.1180   45.8732 H   0  0  0  0  0  0  0  0  0  0  0  0
   47.9548   32.2335   48.3712 H   0  0  0  0  0  0  0  0  0  0  0  0
   46.8185   31.5094   49.5280 H   0  0  0  0  0  0  0  0  0  0  0  0
   49.5376   31.4114   49.8886 H   0  0  0  0  0  0  0  0  0  0  0  0
   48.5157   30.1186   50.4801 H   0  0  0  0  0  0  0  0  0  0  0  0
   50.1363   30.2834   47.8931 H   0  0  0  0  0  0  0  0  0  0  0  0
   49.9712   28.8965   48.9418 H   0  0  0  0  0  0  0  0  0  0  0  0
   47.7770   28.3853   48.1094 H   0  0  0  0  0  0  0  0  0  0  0  0
   48.4506   29.1566   46.6579 H   0  0  0  0  0  0  0  0  0  0  0  0
  1  2  1  0
  2 13  1  0
  2  3  2  0
  4  3  1  0
  5  4  2  0
  6  1  2  0
  6  5  1  0
  7  8  1  0
  7  1  1  0
  9  8  1  0
 10  9  1  0
 11 10  1  0
 11 12  1  0
 12  7  1  0
 13 14  1  0
 14 15  1  0
 15 16  1  0
 16 17  1  0
 17 18  1  0
 19 18  1  0
 20 16  1  0
 20 19  1  0
  3 21  1  0
  5 22  1  0
  7 23  1  0
  8 24  1  0
  8 25  1  0
  9 26  1  0
  9 27  1  0
 10 28  1  0
 10 29  1  0
 11 30  1  0
 11 31  1  0
 12 32  1  0
 12 33  1  0
 14 34  1  0
 14 35  1  0
 15 36  1  0
 15 37  1  0
 17 38  1  0
 17 39  1  0
 18 40  1  0
 18 41  1  0
 19 42  1  0
 19 43  1  0
 20 44  1  0
 20 45  1  0
M  ISO  8  21  14  22  14  23  13  24  13  25  13  26  13  27  13  28  13
M  ISO  8  29  13  30  13  31  13  32  13  33  13  34   8  35   8  36   8
M  ISO  8  37   8  38  13  39  13  40  13  41  13  42  13  43  13  44  13
M  ISO  1  45  13
M  END
>  <minimizedAffinity>  (1) 
-5.61741829

>  <minimizedRMSD>  (1) 
1.56610775

$$$$
