
     RDKit          3D

 46 48  0  0  0  0  0  0  0  0999 V2000
   46.1580   34.5420   43.5830 C   0  0  0  0  0  0  0  0  0  0  0  0
   46.1840   33.7560   44.7230 C   0  0  0  0  0  0  0  0  0  0  0  0
   45.3750   34.1390   45.7550 C   0  0  0  0  0  0  0  0  0  0  0  0
   44.5950   35.2520   45.6220 N   0  0  0  0  0  0  0  0  0  0  0  0
   44.5770   35.9980   44.5260 C   0  0  0  0  0  0  0  0  0  0  0  0
   45.3580   35.6310   43.5250 N   0  0  0  0  0  0  0  0  0  0  0  0
   47.0620   34.1420   42.5060 C   0  0  0  0  0  0  0  0  0  0  0  0
   48.4180   34.6630   42.5660 C   0  0  0  0  0  0  0  0  0  0  0  0
   48.7300   35.5970   41.4700 C   0  0  0  0  0  0  0  0  0  0  0  0
   48.5220   34.9490   40.1110 C   0  0  0  0  0  0  0  0  0  0  0  0
   47.2930   34.1110   40.0350 C   0  0  0  0  0  0  0  0  0  0  0  0
   46.3500   34.4150   41.1860 C   0  0  0  0  0  0  0  0  0  0  0  0
   46.8530   32.6610   45.0420 O   0  0  0  0  0  0  0  0  0  0  0  0
   47.1170   31.9870   46.2000 C   0  0  0  0  0  0  0  0  0  0  0  0
   47.6390   30.5750   46.0030 C   0  0  0  0  0  0  0  0  0  0  0  0
   46.9930   29.5770   46.9350 C   0  0  0  0  0  0  0  0  0  0  0  0
   46.2580   30.3380   48.0190 C   0  0  0  0  0  0  0  0  0  0  0  0
   45.0480   29.4780   48.2770 C   0  0  0  0  0  0  0  0  0  0  0  0
   44.6060   29.1470   46.8590 C   0  0  0  0  0  0  0  0  0  0  0  0
   45.9250   28.7960   46.2020 C   0  0  0  0  0  0  0  0  0  0  0  0
   45.3520   33.5548   46.6868 H   0  0  0  0  0  0  0  0  0  0  0  0
   43.9361   36.8890   44.4526 H   0  0  0  0  0  0  0  0  0  0  0  0
   47.2645   33.0671   42.6225 H   0  0  0  0  0  0  0  0  0  0  0  0
   48.5478   35.1905   43.5225 H   0  0  0  0  0  0  0  0  0  0  0  0
   49.1017   33.8066   42.4703 H   0  0  0  0  0  0  0  0  0  0  0  0
   48.0735   36.4759   41.5513 H   0  0  0  0  0  0  0  0  0  0  0  0
   49.7871   35.8891   41.5554 H   0  0  0  0  0  0  0  0  0  0  0  0
   48.4492   35.7435   39.3538 H   0  0  0  0  0  0  0  0  0  0  0  0
   49.3796   34.2829   39.9351 H   0  0  0  0  0  0  0  0  0  0  0  0
   46.7774   34.3153   39.0850 H   0  0  0  0  0  0  0  0  0  0  0  0
   47.5880   33.0531   40.0960 H   0  0  0  0  0  0  0  0  0  0  0  0
   46.0470   35.4716   41.1436 H   0  0  0  0  0  0  0  0  0  0  0  0
   45.4575   33.7765   41.1097 H   0  0  0  0  0  0  0  0  0  0  0  0
   47.8705   32.5560   46.7643 H   0  0  0  0  0  0  0  0  0  0  0  0
   46.1591   31.8944   46.7328 H   0  0  0  0  0  0  0  0  0  0  0  0
   47.4391   30.2679   44.9658 H   0  0  0  0  0  0  0  0  0  0  0  0
   48.7164   30.5861   46.2247 H   0  0  0  0  0  0  0  0  0  0  0  0
   47.7762   28.9137   47.3308 H   0  0  0  0  0  0  0  0  0  0  0  0
   46.8760   30.4324   48.9241 H   0  0  0  0  0  0  0  0  0  0  0  0
   46.0034   31.3680   47.7286 H   0  0  0  0  0  0  0  0  0  0  0  0
   45.3124   28.5697   48.8382 H   0  0  0  0  0  0  0  0  0  0  0  0
   44.2728   29.9644   48.8873 H   0  0  0  0  0  0  0  0  0  0  0  0
   43.9109   28.2946   46.8440 H   0  0  0  0  0  0  0  0  0  0  0  0
   44.0601   29.9608   46.3593 H   0  0  0  0  0  0  0  0  0  0  0  0
   46.1171   27.7164   46.2889 H   0  0  0  0  0  0  0  0  0  0  0  0
   45.9143   29.0467   45.1310 H   0  0  0  0  0  0  0  0  0  0  0  0
  1  2  1  0
  2 13  1  0
  2  3  2  0
  4  3  1  0
  5  4  2  0
  6  1  2  0
  6  5  1  0
  7  8  1  0
  7  1  1  0
  9  8  1  0
 10  9  1  0
 11 10  1  0
 11 12  1  0
 12  7  1  0
 13 14  1  0
 15 14  1  0
 15 16  1  0
 16 17  1  0
 17 18  1  0
 19 18  1  0
 20 19  1  0
 20 16  1  0
  3 21  1  0
  5 22  1  0
  7 23  1  0
  8 24  1  0
  8 25  1  0
  9 26  1  0
  9 27  1  0
 10 28  1  0
 10 29  1  0
 11 30  1  0
 11 31  1  0
 12 32  1  0
 12 33  1  0
 14 34  1  0
 14 35  1  0
 15 36  1  0
 15 37  1  0
 16 38  1  0
 17 39  1  0
 17 40  1  0
 18 41  1  0
 18 42  1  0
 19 43  1  0
 19 44  1  0
 20 45  1  0
 20 46  1  0
M  ISO  8  21  14  22  14  23  13  24  13  25  13  26  13  27  13  28  13
M  ISO  8  29  13  30  13  31  13  32  13  33  13  34   8  35   8  36   8
M  ISO  8  37   8  38  13  39  13  40  13  41  13  42  13  43  13  44  13
M  ISO  2  45  13  46  13
M  END
>  <minimizedAffinity>  (1) 
-5.59585619

>  <minimizedRMSD>  (1) 
2.16082025

$$$$
