
     RDKit          3D

 37 38  0  0  0  0  0  0  0  0999 V2000
   46.0690   34.5810   43.5920 C   0  0  0  0  0  0  0  0  0  0  0  0
   46.0340   33.8060   44.7360 C   0  0  0  0  0  0  0  0  0  0  0  0
   45.2440   34.2420   45.7590 C   0  0  0  0  0  0  0  0  0  0  0  0
   44.5350   35.4010   45.6120 N   0  0  0  0  0  0  0  0  0  0  0  0
   44.5720   36.1450   44.5040 C   0  0  0  0  0  0  0  0  0  0  0  0
   45.3400   35.7160   43.5190 N   0  0  0  0  0  0  0  0  0  0  0  0
   46.9540   34.1170   42.5260 C   0  0  0  0  0  0  0  0  0  0  0  0
   48.3240   34.6040   42.5610 C   0  0  0  0  0  0  0  0  0  0  0  0
   48.6570   35.4870   41.4280 C   0  0  0  0  0  0  0  0  0  0  0  0
   48.4290   34.7880   40.1010 C   0  0  0  0  0  0  0  0  0  0  0  0
   47.1600   33.9960   40.0550 C   0  0  0  0  0  0  0  0  0  0  0  0
   46.2410   34.3640   41.2020 C   0  0  0  0  0  0  0  0  0  0  0  0
   46.6290   32.6750   45.0700 O   0  0  0  0  0  0  0  0  0  0  0  0
   46.9660   32.0600   46.2450 C   0  0  0  0  0  0  0  0  0  0  0  0
   46.2320   30.7680   46.5160 C   0  0  0  0  0  0  0  0  0  0  0  0
   44.9630   31.1360   48.7030 C   0  0  0  0  0  0  0  0  0  0  0  0
   45.9750   30.9440   49.4050 O   0  0  0  0  0  0  0  0  0  0  0  0
   45.0400   31.0600   47.2860 N   0  0  0  0  0  0  0  0  0  0  0  0
   45.1782   33.6659   46.6938 H   0  0  0  0  0  0  0  0  0  0  0  0
   43.9890   37.0736   44.4155 H   0  0  0  0  0  0  0  0  0  0  0  0
   47.1278   33.0415   42.6781 H   0  0  0  0  0  0  0  0  0  0  0  0
   48.4718   35.1645   43.4959 H   0  0  0  0  0  0  0  0  0  0  0  0
   48.9840   33.7265   42.4958 H   0  0  0  0  0  0  0  0  0  0  0  0
   48.0226   36.3845   41.4743 H   0  0  0  0  0  0  0  0  0  0  0  0
   49.7204   35.7590   41.4998 H   0  0  0  0  0  0  0  0  0  0  0  0
   48.3935   35.5493   39.3078 H   0  0  0  0  0  0  0  0  0  0  0  0
   49.2586   34.0792   39.9613 H   0  0  0  0  0  0  0  0  0  0  0  0
   46.6453   34.1983   39.1041 H   0  0  0  0  0  0  0  0  0  0  0  0
   47.4128   32.9289   40.1406 H   0  0  0  0  0  0  0  0  0  0  0  0
   45.9676   35.4268   41.1259 H   0  0  0  0  0  0  0  0  0  0  0  0
   45.3320   33.7463   41.1552 H   0  0  0  0  0  0  0  0  0  0  0  0
   48.0441   31.8427   46.2208 H   0  0  0  0  0  0  0  0  0  0  0  0
   46.6814   32.7531   47.0504 H   0  0  0  0  0  0  0  0  0  0  0  0
   45.9501   30.2962   45.5631 H   0  0  0  0  0  0  0  0  0  0  0  0
   46.8810   30.0808   47.0786 H   0  0  0  0  0  0  0  0  0  0  0  0
   44.0014   31.3664   49.1848 H   0  0  0  0  0  0  0  0  0  0  0  0
   44.1708   31.2275   46.7594 H   0  0  0  0  0  0  0  0  0  0  0  0
  1  2  2  0
  2 13  1  0
  2  3  1  0
  4  3  2  0
  5  4  1  0
  6  1  1  0
  6  5  2  0
  7  8  1  0
  7  1  1  0
  9  8  1  0
 10  9  1  0
 11 10  1  0
 11 12  1  0
 12  7  1  0
 13 14  1  0
 14 15  1  0
 15 18  1  0
 16 17  2  0
 18 16  1  0
  3 19  1  0
  5 20  1  0
  7 21  1  0
  8 22  1  0
  8 23  1  0
  9 24  1  0
  9 25  1  0
 10 26  1  0
 10 27  1  0
 11 28  1  0
 11 29  1  0
 12 30  1  0
 12 31  1  0
 14 32  1  0
 14 33  1  0
 15 34  1  0
 15 35  1  0
 16 36  1  0
 18 37  1  0
M  ISO  8  19  14  20  14  21  13  22  13  23  13  24  13  25  13  26  13
M  ISO  8  27  13  28  13  29  13  30  13  31  13  32   8  33   8  34   8
M  ISO  2  35   8  36   6
M  END
>  <minimizedAffinity>  (1) 
-5.56513166

>  <minimizedRMSD>  (1) 
1.54724205

$$$$
