
     RDKit          3D

 34 35  0  0  0  0  0  0  0  0999 V2000
   47.6530   33.5500   43.3310 C   0  0  0  0  0  0  0  0  0  0  0  0
   48.8130   34.2960   42.8770 C   0  0  0  0  0  0  0  0  0  0  0  0
   49.1000   34.1210   41.4390 C   0  0  0  0  0  0  0  0  0  0  0  0
   49.3140   32.6540   41.1040 C   0  0  0  0  0  0  0  0  0  0  0  0
   48.3290   31.7470   41.7610 C   0  0  0  0  0  0  0  0  0  0  0  0
   47.1590   32.5230   42.3170 C   0  0  0  0  0  0  0  0  0  0  0  0
   46.4960   34.3480   43.7460 C   0  0  0  0  0  0  0  0  0  0  0  0
   45.9880   34.0530   44.9970 C   0  0  0  0  0  0  0  0  0  0  0  0
   44.9240   34.8020   45.4270 C   0  0  0  0  0  0  0  0  0  0  0  0
   44.4290   35.7800   44.6150 N   0  0  0  0  0  0  0  0  0  0  0  0
   44.9250   36.0600   43.4060 C   0  0  0  0  0  0  0  0  0  0  0  0
   45.9480   35.3360   42.9980 N   0  0  0  0  0  0  0  0  0  0  0  0
   46.3100   33.1720   45.9170 O   0  0  0  0  0  0  0  0  0  0  0  0
   45.7540   32.7260   47.0820 C   0  0  0  0  0  0  0  0  0  0  0  0
   45.7550   31.2210   47.2580 C   0  0  0  0  0  0  0  0  0  0  0  0
   44.8460   30.7940   48.2130 O   0  0  0  0  0  0  0  0  0  0  0  0
   48.0581   33.0539   44.2253 H   0  0  0  0  0  0  0  0  0  0  0  0
   48.6369   35.3646   43.0694 H   0  0  0  0  0  0  0  0  0  0  0  0
   49.6824   33.9104   43.4297 H   0  0  0  0  0  0  0  0  0  0  0  0
   48.2516   34.5043   40.8530 H   0  0  0  0  0  0  0  0  0  0  0  0
   50.0178   34.6754   41.1935 H   0  0  0  0  0  0  0  0  0  0  0  0
   49.2301   32.5293   40.0143 H   0  0  0  0  0  0  0  0  0  0  0  0
   50.3106   32.3772   41.4785 H   0  0  0  0  0  0  0  0  0  0  0  0
   47.9596   31.0220   41.0209 H   0  0  0  0  0  0  0  0  0  0  0  0
   48.8313   31.2306   42.5923 H   0  0  0  0  0  0  0  0  0  0  0  0
   46.6413   33.0406   41.4960 H   0  0  0  0  0  0  0  0  0  0  0  0
   46.4660   31.8278   42.8134 H   0  0  0  0  0  0  0  0  0  0  0  0
   44.4750   34.6170   46.4140 H   0  0  0  0  0  0  0  0  0  0  0  0
   44.4990   36.8580   42.7802 H   0  0  0  0  0  0  0  0  0  0  0  0
   46.3151   33.1676   47.9187 H   0  0  0  0  0  0  0  0  0  0  0  0
   44.6976   33.0312   47.0546 H   0  0  0  0  0  0  0  0  0  0  0  0
   45.4998   30.7539   46.2954 H   0  0  0  0  0  0  0  0  0  0  0  0
   46.7585   30.9269   47.5992 H   0  0  0  0  0  0  0  0  0  0  0  0
   45.2117   30.9658   49.1168 H   0  0  0  0  0  0  0  0  0  0  0  0
  1  7  1  0
  2  1  1  0
  3  2  1  0
  4  3  1  0
  4  5  1  0
  5  6  1  0
  6  1  1  0
  7  8  2  0
  8  9  1  0
  8 13  1  0
 10  9  2  0
 11 10  1  0
 12 11  2  0
 12  7  1  0
 13 14  1  0
 14 15  1  0
 15 16  1  0
  1 17  1  0
  2 18  1  0
  2 19  1  0
  3 20  1  0
  3 21  1  0
  4 22  1  0
  4 23  1  0
  5 24  1  0
  5 25  1  0
  6 26  1  0
  6 27  1  0
  9 28  1  0
 11 29  1  0
 14 30  1  0
 14 31  1  0
 15 32  1  0
 15 33  1  0
 16 34  1  0
M  ISO  8  17  13  18  13  19  13  20  13  21  13  22  13  23  13  24  13
M  ISO  8  25  13  26  13  27  13  28  14  29  14  30   8  31   8  32   8
M  ISO  2  33   8  34   3
M  END
>  <minimizedAffinity>  (1) 
-4.28530741

>  <minimizedRMSD>  (1) 
0.106687106

$$$$
