
     RDKit          3D

 50 52  0  0  0  0  0  0  0  0999 V2000
   46.1900   34.6980   43.3680 C   0  0  0  0  0  0  0  0  0  0  0  0
   46.1330   33.9480   44.5190 C   0  0  0  0  0  0  0  0  0  0  0  0
   45.2810   34.3800   45.4970 C   0  0  0  0  0  0  0  0  0  0  0  0
   44.5420   35.4970   45.3080 N   0  0  0  0  0  0  0  0  0  0  0  0
   44.5970   36.2180   44.1940 C   0  0  0  0  0  0  0  0  0  0  0  0
   45.4210   35.8010   43.2520 N   0  0  0  0  0  0  0  0  0  0  0  0
   47.0570   34.2020   42.2930 C   0  0  0  0  0  0  0  0  0  0  0  0
   48.4290   34.8080   42.3690 C   0  0  0  0  0  0  0  0  0  0  0  0
   48.7420   35.6360   41.2060 C   0  0  0  0  0  0  0  0  0  0  0  0
   48.5840   34.8760   39.9080 C   0  0  0  0  0  0  0  0  0  0  0  0
   47.3470   34.0690   39.8470 C   0  0  0  0  0  0  0  0  0  0  0  0
   46.3970   34.4010   40.9750 C   0  0  0  0  0  0  0  0  0  0  0  0
   46.7710   32.8370   44.8900 O   0  0  0  0  0  0  0  0  0  0  0  0
   46.8340   32.1180   46.0500 C   0  0  0  0  0  0  0  0  0  0  0  0
   46.0640   30.8000   45.9690 C   0  0  0  0  0  0  0  0  0  0  0  0
   45.1080   30.6600   47.0270 N   0  0  0  0  0  0  0  0  0  0  0  0
   45.8820   29.7730   48.3130 S   0  0  0  0  0  0  0  0  0  0  0  0
   45.2440   28.4200   48.4520 O   0  0  0  0  0  0  0  0  0  0  0  0
   45.6840   30.5520   49.5630 O   0  0  0  0  0  0  0  0  0  0  0  0
   47.5080   29.5830   48.0320 O   0  0  0  0  0  0  0  0  0  0  0  0
   48.5450   30.1550   48.7110 C   0  0  0  0  0  0  0  0  0  0  0  0
   48.8640   31.4310   49.0960 C   0  0  0  0  0  0  0  0  0  0  0  0
   50.0160   31.7230   49.7950 C   0  0  0  0  0  0  0  0  0  0  0  0
   50.9020   30.7420   50.1430 C   0  0  0  0  0  0  0  0  0  0  0  0
   50.5700   29.4650   49.7510 C   0  0  0  0  0  0  0  0  0  0  0  0
   49.4300   29.1710   49.0580 N   0  0  0  0  0  0  0  0  0  0  0  0
   45.1963   33.8184   46.4390 H   0  0  0  0  0  0  0  0  0  0  0  0
   43.9835   37.1216   44.0628 H   0  0  0  0  0  0  0  0  0  0  0  0
   47.2066   33.1197   42.4203 H   0  0  0  0  0  0  0  0  0  0  0  0
   48.4890   35.4324   43.2726 H   0  0  0  0  0  0  0  0  0  0  0  0
   49.1567   33.9836   42.3971 H   0  0  0  0  0  0  0  0  0  0  0  0
   48.0643   36.5024   41.1946 H   0  0  0  0  0  0  0  0  0  0  0  0
   49.7924   35.9522   41.2879 H   0  0  0  0  0  0  0  0  0  0  0  0
   48.5693   35.5997   39.0798 H   0  0  0  0  0  0  0  0  0  0  0  0
   49.4310   34.1779   39.8353 H   0  0  0  0  0  0  0  0  0  0  0  0
   46.8427   34.2642   38.8891 H   0  0  0  0  0  0  0  0  0  0  0  0
   47.6280   33.0096   39.9406 H   0  0  0  0  0  0  0  0  0  0  0  0
   46.0811   35.4507   40.8840 H   0  0  0  0  0  0  0  0  0  0  0  0
   45.5250   33.7335   40.9114 H   0  0  0  0  0  0  0  0  0  0  0  0
   47.8888   31.8965   46.2700 H   0  0  0  0  0  0  0  0  0  0  0  0
   46.3721   32.7248   46.8428 H   0  0  0  0  0  0  0  0  0  0  0  0
   45.5338   30.7593   45.0061 H   0  0  0  0  0  0  0  0  0  0  0  0
   46.7914   29.9803   46.0636 H   0  0  0  0  0  0  0  0  0  0  0  0
   44.8178   31.5888   47.3647 H   0  0  0  0  0  0  0  0  0  0  0  0
   45.1407   28.2009   49.4119 H   0  0  0  0  0  0  0  0  0  0  0  0
   45.8334   29.9641   50.3454 H   0  0  0  0  0  0  0  0  0  0  0  0
   48.1771   32.2507   48.8384 H   0  0  0  0  0  0  0  0  0  0  0  0
   50.2261   32.7650   50.0780 H   0  0  0  0  0  0  0  0  0  0  0  0
   51.8239   30.9598   50.7021 H   0  0  0  0  0  0  0  0  0  0  0  0
   51.2544   28.6430   50.0077 H   0  0  0  0  0  0  0  0  0  0  0  0
  1  2  1  0
  2 13  1  0
  2  3  2  0
  4  3  1  0
  5  4  2  0
  6  1  2  0
  6  5  1  0
  7  8  1  0
  7  1  1  0
  9  8  1  0
 10  9  1  0
 11 10  1  0
 11 12  1  0
 12  7  1  0
 13 14  1  0
 15 14  1  0
 15 16  1  0
 16 17  1  0
 17 18  1  0
 17 19  1  0
 20 17  1  0
 20 21  1  0
 21 26  1  0
 21 22  2  0
 22 23  1  0
 23 24  2  0
 25 24  1  0
 26 25  2  0
  3 27  1  0
  5 28  1  0
  7 29  1  0
  8 30  1  0
  8 31  1  0
  9 32  1  0
  9 33  1  0
 10 34  1  0
 10 35  1  0
 11 36  1  0
 11 37  1  0
 12 38  1  0
 12 39  1  0
 14 40  1  0
 14 41  1  0
 15 42  1  0
 15 43  1  0
 16 44  1  0
 18 45  1  0
 19 46  1  0
 22 47  1  0
 23 48  1  0
 24 49  1  0
 25 50  1  0
M  ISO  8  27  14  28  14  29  13  30  13  31  13  32  13  33  13  34  13
M  ISO  8  35  13  36  13  37  13  38  13  39  13  40   8  41   8  42   8
M  ISO  8  43   8  44   5  45   3  46   3  47  14  48  14  49  14  50  14
M  END
>  <minimizedAffinity>  (1) 
-6.30656767

>  <minimizedRMSD>  (1) 
1.5576508

$$$$
