
     RDKit          3D

 52 54  0  0  1  0  0  0  0  0999 V2000
   46.5380   34.4260   43.3610 C   0  0  0  0  0  0  0  0  0  0  0  0
   46.6190   33.5840   44.4430 C   0  0  0  0  0  0  0  0  0  0  0  0
   45.7500   33.8140   45.4750 C   0  0  0  0  0  0  0  0  0  0  0  0
   44.8650   34.8320   45.3940 N   0  0  0  0  0  0  0  0  0  0  0  0
   44.7870   35.6440   44.3490 C   0  0  0  0  0  0  0  0  0  0  0  0
   45.6270   35.4230   43.3540 N   0  0  0  0  0  0  0  0  0  0  0  0
   47.4210   34.1380   42.2240 C   0  0  0  0  0  0  0  0  0  0  0  0
   48.7270   34.8700   42.3430 C   0  0  0  0  0  0  0  0  0  0  0  0
   48.9230   35.8500   41.2760 C   0  0  0  0  0  0  0  0  0  0  0  0
   48.7990   35.2240   39.9040 C   0  0  0  0  0  0  0  0  0  0  0  0
   47.6650   34.2810   39.7780 C   0  0  0  0  0  0  0  0  0  0  0  0
   46.7100   34.4050   40.9460 C   0  0  0  0  0  0  0  0  0  0  0  0
   47.4090   32.5420   44.7050 O   0  0  0  0  0  0  0  0  0  0  0  0
   47.3890   31.5400   45.6320 C   0  0  0  0  0  0  0  0  0  0  0  0
   47.2020   30.1560   45.0240 C   0  0  0  0  0  0  0  0  0  0  0  0
   45.8100   29.8310   44.8350 N   0  0  0  0  0  0  0  0  0  0  0  0
   45.3190   28.8310   46.1790 S   0  0  0  0  0  0  0  0  0  0  0  0
   45.4400   27.3780   45.8280 O   0  0  0  0  0  0  0  0  0  0  0  0
   43.8980   29.1810   46.4890 O   0  0  0  0  0  0  0  0  0  0  0  0
   46.2410   29.1590   47.5270 O   0  0  0  0  0  0  0  0  0  0  0  0
   47.7620   30.8610   49.4550 O   0  0  0  0  0  0  0  0  0  0  0  0
   46.5420   30.8570   49.1730 C   0  0  0  0  0  0  0  0  0  0  0  0
   45.5890   29.9630   48.4480 C   0  0  1  0  0  0  0  0  0  0  0  0
   44.8020   30.9870   47.6580 C   0  0  0  0  0  0  0  0  0  0  0  0
   44.6090   32.0970   48.6400 C   0  0  0  0  0  0  0  0  0  0  0  0
   45.6960   31.9460   49.5970 N   0  0  0  0  0  0  0  0  0  0  0  0
   45.7719   33.1720   46.3679 H   0  0  0  0  0  0  0  0  0  0  0  0
   44.0556   36.4648   44.3122 H   0  0  0  0  0  0  0  0  0  0  0  0
   47.6812   33.0692   42.2314 H   0  0  0  0  0  0  0  0  0  0  0  0
   48.7504   35.3933   43.3103 H   0  0  0  0  0  0  0  0  0  0  0  0
   49.5335   34.1262   42.2637 H   0  0  0  0  0  0  0  0  0  0  0  0
   48.1647   36.6406   41.3758 H   0  0  0  0  0  0  0  0  0  0  0  0
   49.9391   36.2600   41.3727 H   0  0  0  0  0  0  0  0  0  0  0  0
   48.6644   36.0289   39.1664 H   0  0  0  0  0  0  0  0  0  0  0  0
   49.7181   34.6447   39.7319 H   0  0  0  0  0  0  0  0  0  0  0  0
   47.1212   34.4978   38.8467 H   0  0  0  0  0  0  0  0  0  0  0  0
   48.0664   33.2569   39.7667 H   0  0  0  0  0  0  0  0  0  0  0  0
   46.2938   35.4230   40.9680 H   0  0  0  0  0  0  0  0  0  0  0  0
   45.9007   33.6697   40.8263 H   0  0  0  0  0  0  0  0  0  0  0  0
   48.3423   31.5537   46.1807 H   0  0  0  0  0  0  0  0  0  0  0  0
   46.5272   31.7243   46.2903 H   0  0  0  0  0  0  0  0  0  0  0  0
   47.7091   30.1256   44.0484 H   0  0  0  0  0  0  0  0  0  0  0  0
   47.6308   29.4194   45.7194 H   0  0  0  0  0  0  0  0  0  0  0  0
   45.2471   30.6933   44.8139 H   0  0  0  0  0  0  0  0  0  0  0  0
   45.4848   26.8406   46.6582 H   0  0  0  0  0  0  0  0  0  0  0  0
   43.7723   29.2119   47.4705 H   0  0  0  0  0  0  0  0  0  0  0  0
   45.0257   29.2983   49.1194 H   0  0  0  0  0  0  0  0  0  0  0  0
   45.3697   31.3302   46.7805 H   0  0  0  0  0  0  0  0  0  0  0  0
   43.8556   30.5921   47.2601 H   0  0  0  0  0  0  0  0  0  0  0  0
   44.6695   33.0733   48.1369 H   0  0  0  0  0  0  0  0  0  0  0  0
   43.6225   32.0534   49.1246 H   0  0  0  0  0  0  0  0  0  0  0  0
   45.8377   32.5223   50.4388 H   0  0  0  0  0  0  0  0  0  0  0  0
  1  2  1  0
  2 13  1  0
  2  3  2  0
  4  3  1  0
  5  4  2  0
  6  1  2  0
  6  5  1  0
  7  8  1  0
  7  1  1  0
  9  8  1  0
 10  9  1  0
 11 10  1  0
 11 12  1  0
 12  7  1  0
 13 14  1  0
 15 14  1  0
 16 15  1  0
 16 17  1  0
 17 19  1  0
 17 20  1  0
 18 17  1  0
 22 21  2  0
 22 26  1  0
 23 20  1  0
 23 22  1  0
 24 23  1  0
 24 25  1  0
 25 26  1  0
  3 27  1  0
  5 28  1  0
  7 29  1  0
  8 30  1  0
  8 31  1  0
  9 32  1  0
  9 33  1  0
 10 34  1  0
 10 35  1  0
 11 36  1  0
 11 37  1  0
 12 38  1  0
 12 39  1  0
 14 40  1  0
 14 41  1  0
 15 42  1  0
 15 43  1  0
 16 44  1  0
 18 45  1  0
 19 46  1  0
 23 47  1  1
 24 48  1  0
 24 49  1  0
 25 50  1  0
 25 51  1  0
 26 52  1  0
M  ISO  8  27  14  28  14  29  13  30  13  31  13  32  13  33  13  34  13
M  ISO  8  35  13  36  13  37  13  38  13  39  13  40   8  41   8  42   8
M  ISO  8  43   8  44   5  45   3  46   3  47  13  48  13  49  13  50  13
M  ISO  2  51  13  52  10
M  END
>  <minimizedAffinity>  (1) 
-5.58596373

>  <minimizedRMSD>  (1) 
1.40202141

$$$$
