
     RDKit          3D

 43 44  0  0  0  0  0  0  0  0999 V2000
   46.1550   34.5690   43.6130 C   0  0  0  0  0  0  0  0  0  0  0  0
   46.1560   33.8040   44.7540 C   0  0  0  0  0  0  0  0  0  0  0  0
   45.3270   34.1950   45.7650 C   0  0  0  0  0  0  0  0  0  0  0  0
   44.5520   35.2860   45.6160 N   0  0  0  0  0  0  0  0  0  0  0  0
   44.5460   36.0310   44.5090 C   0  0  0  0  0  0  0  0  0  0  0  0
   45.3510   35.6510   43.5350 N   0  0  0  0  0  0  0  0  0  0  0  0
   47.0010   34.1110   42.5020 C   0  0  0  0  0  0  0  0  0  0  0  0
   48.3850   34.6840   42.5930 C   0  0  0  0  0  0  0  0  0  0  0  0
   48.7020   35.5760   41.4790 C   0  0  0  0  0  0  0  0  0  0  0  0
   48.5150   34.8890   40.1420 C   0  0  0  0  0  0  0  0  0  0  0  0
   47.2610   34.1090   40.0490 C   0  0  0  0  0  0  0  0  0  0  0  0
   46.3330   34.3950   41.2070 C   0  0  0  0  0  0  0  0  0  0  0  0
   46.8360   32.7080   45.0930 O   0  0  0  0  0  0  0  0  0  0  0  0
   47.2470   32.1600   46.2760 C   0  0  0  0  0  0  0  0  0  0  0  0
   47.1410   30.6330   46.3030 C   0  0  0  0  0  0  0  0  0  0  0  0
   45.9930   30.1540   45.5840 N   0  0  0  0  0  0  0  0  0  0  0  0
   44.8360   29.5800   46.7560 S   0  0  0  0  0  0  0  0  0  0  0  0
   43.5990   29.0680   46.0820 O   0  0  0  0  0  0  0  0  0  0  0  0
   44.5050   30.7380   47.6460 O   0  0  0  0  0  0  0  0  0  0  0  0
   45.5020   28.3800   47.7120 O   0  0  0  0  0  0  0  0  0  0  0  0
   44.8300   27.1640   47.8200 C   0  0  0  0  0  0  0  0  0  0  0  0
   44.4280   26.7620   48.9410 O   0  0  0  0  0  0  0  0  0  0  0  0
   45.2919   33.6190   46.7015 H   0  0  0  0  0  0  0  0  0  0  0  0
   43.9021   36.9177   44.4132 H   0  0  0  0  0  0  0  0  0  0  0  0
   47.1284   33.0206   42.5706 H   0  0  0  0  0  0  0  0  0  0  0  0
   48.4701   35.2503   43.5322 H   0  0  0  0  0  0  0  0  0  0  0  0
   49.0946   33.8443   42.5578 H   0  0  0  0  0  0  0  0  0  0  0  0
   48.0400   36.4533   41.5250 H   0  0  0  0  0  0  0  0  0  0  0  0
   49.7571   35.8741   41.5673 H   0  0  0  0  0  0  0  0  0  0  0  0
   48.5066   35.6568   39.3543 H   0  0  0  0  0  0  0  0  0  0  0  0
   49.3469   34.1791   40.0241 H   0  0  0  0  0  0  0  0  0  0  0  0
   46.7493   34.3687   39.1105 H   0  0  0  0  0  0  0  0  0  0  0  0
   47.5210   33.0405   40.0760 H   0  0  0  0  0  0  0  0  0  0  0  0
   46.0372   35.4541   41.1787 H   0  0  0  0  0  0  0  0  0  0  0  0
   45.4485   33.7472   41.1176 H   0  0  0  0  0  0  0  0  0  0  0  0
   48.2971   32.4405   46.4450 H   0  0  0  0  0  0  0  0  0  0  0  0
   46.5837   32.5474   47.0634 H   0  0  0  0  0  0  0  0  0  0  0  0
   48.0470   30.2073   45.8471 H   0  0  0  0  0  0  0  0  0  0  0  0
   47.0353   30.3212   47.3526 H   0  0  0  0  0  0  0  0  0  0  0  0
   45.5816   30.9188   45.0302 H   0  0  0  0  0  0  0  0  0  0  0  0
   42.9388   28.7948   46.7673 H   0  0  0  0  0  0  0  0  0  0  0  0
   44.5845   30.4598   48.5928 H   0  0  0  0  0  0  0  0  0  0  0  0
   44.6509   26.5545   46.9220 H   0  0  0  0  0  0  0  0  0  0  0  0
  1  2  2  0
  2 13  1  0
  2  3  1  0
  4  3  2  0
  5  4  1  0
  6  1  1  0
  6  5  2  0
  7  8  1  0
  7  1  1  0
  9  8  1  0
 10  9  1  0
 11 10  1  0
 11 12  1  0
 12  7  1  0
 13 14  1  0
 14 15  1  0
 16 15  1  0
 16 17  1  0
 17 19  1  0
 17 20  1  0
 18 17  1  0
 20 21  1  0
 21 22  2  0
  3 23  1  0
  5 24  1  0
  7 25  1  0
  8 26  1  0
  8 27  1  0
  9 28  1  0
  9 29  1  0
 10 30  1  0
 10 31  1  0
 11 32  1  0
 11 33  1  0
 12 34  1  0
 12 35  1  0
 14 36  1  0
 14 37  1  0
 15 38  1  0
 15 39  1  0
 16 40  1  0
 18 41  1  0
 19 42  1  0
 21 43  1  0
M  ISO  8  23  14  24  14  25  13  26  13  27  13  28  13  29  13  30  13
M  ISO  8  31  13  32  13  33  13  34  13  35  13  36   8  37   8  38   8
M  ISO  5  39   8  40   5  41   3  42   3  43   6
M  END
>  <minimizedAffinity>  (1) 
-5.3428812

>  <minimizedRMSD>  (1) 
0.877792358

$$$$
