
     RDKit          3D

 44 45  0  0  0  0  0  0  0  0999 V2000
   46.1580   34.5740   43.5890 C   0  0  0  0  0  0  0  0  0  0  0  0
   46.1710   33.8100   44.7300 C   0  0  0  0  0  0  0  0  0  0  0  0
   45.3420   34.2060   45.7470 C   0  0  0  0  0  0  0  0  0  0  0  0
   44.5600   35.3010   45.5950 N   0  0  0  0  0  0  0  0  0  0  0  0
   44.5510   36.0330   44.4900 C   0  0  0  0  0  0  0  0  0  0  0  0
   45.3510   35.6520   43.5140 N   0  0  0  0  0  0  0  0  0  0  0  0
   47.0070   34.1230   42.4780 C   0  0  0  0  0  0  0  0  0  0  0  0
   48.3850   34.7140   42.5690 C   0  0  0  0  0  0  0  0  0  0  0  0
   48.7000   35.5880   41.4420 C   0  0  0  0  0  0  0  0  0  0  0  0
   48.5200   34.8830   40.1140 C   0  0  0  0  0  0  0  0  0  0  0  0
   47.2630   34.1090   40.0260 C   0  0  0  0  0  0  0  0  0  0  0  0
   46.3360   34.3940   41.1820 C   0  0  0  0  0  0  0  0  0  0  0  0
   46.8540   32.7180   45.0670 O   0  0  0  0  0  0  0  0  0  0  0  0
   47.1340   32.0890   46.2460 C   0  0  0  0  0  0  0  0  0  0  0  0
   47.1180   30.5690   46.1470 C   0  0  0  0  0  0  0  0  0  0  0  0
   46.1740   30.0950   45.1660 N   0  0  0  0  0  0  0  0  0  0  0  0
   44.9550   29.1800   46.0160 S   0  0  0  0  0  0  0  0  0  0  0  0
   43.8790   28.7200   45.0810 O   0  0  0  0  0  0  0  0  0  0  0  0
   44.3860   30.0820   47.0730 O   0  0  0  0  0  0  0  0  0  0  0  0
   45.6370   27.8660   46.7940 O   0  0  0  0  0  0  0  0  0  0  0  0
   44.9540   27.4880   47.9250 C   0  0  0  0  0  0  0  0  0  0  0  0
   45.3119   33.6345   46.6864 H   0  0  0  0  0  0  0  0  0  0  0  0
   43.9053   36.9181   44.3919 H   0  0  0  0  0  0  0  0  0  0  0  0
   47.1458   33.0340   42.5475 H   0  0  0  0  0  0  0  0  0  0  0  0
   48.4564   35.2985   43.4981 H   0  0  0  0  0  0  0  0  0  0  0  0
   49.1045   33.8820   42.5550 H   0  0  0  0  0  0  0  0  0  0  0  0
   48.0341   36.4630   41.4734 H   0  0  0  0  0  0  0  0  0  0  0  0
   49.7544   35.8893   41.5282 H   0  0  0  0  0  0  0  0  0  0  0  0
   48.5207   35.6390   39.3149 H   0  0  0  0  0  0  0  0  0  0  0  0
   49.3496   34.1681   40.0106 H   0  0  0  0  0  0  0  0  0  0  0  0
   46.7508   34.3706   39.0884 H   0  0  0  0  0  0  0  0  0  0  0  0
   47.5217   33.0403   40.0561 H   0  0  0  0  0  0  0  0  0  0  0  0
   46.0319   35.4506   41.1478 H   0  0  0  0  0  0  0  0  0  0  0  0
   45.4568   33.7384   41.0975 H   0  0  0  0  0  0  0  0  0  0  0  0
   48.1335   32.4049   46.5795 H   0  0  0  0  0  0  0  0  0  0  0  0
   46.3451   32.3735   46.9578 H   0  0  0  0  0  0  0  0  0  0  0  0
   48.1236   30.2221   45.8669 H   0  0  0  0  0  0  0  0  0  0  0  0
   46.8143   30.1709   47.1264 H   0  0  0  0  0  0  0  0  0  0  0  0
   46.6514   29.4933   44.4797 H   0  0  0  0  0  0  0  0  0  0  0  0
   43.1062   28.3896   45.6042 H   0  0  0  0  0  0  0  0  0  0  0  0
   44.6115   29.7245   47.9682 H   0  0  0  0  0  0  0  0  0  0  0  0
   45.5186   27.8004   48.8159 H   0  0  0  0  0  0  0  0  0  0  0  0
   43.9635   27.9663   47.9322 H   0  0  0  0  0  0  0  0  0  0  0  0
   44.8333   26.3947   47.9322 H   0  0  0  0  0  0  0  0  0  0  0  0
  1  2  2  0
  2 13  1  0
  2  3  1  0
  4  3  2  0
  5  4  1  0
  6  1  1  0
  6  5  2  0
  7  8  1  0
  7  1  1  0
  9  8  1  0
 10  9  1  0
 11 10  1  0
 11 12  1  0
 12  7  1  0
 13 14  1  0
 15 14  1  0
 16 17  1  0
 16 15  1  0
 17 20  1  0
 17 19  1  0
 18 17  1  0
 20 21  1  0
  3 22  1  0
  5 23  1  0
  7 24  1  0
  8 25  1  0
  8 26  1  0
  9 27  1  0
  9 28  1  0
 10 29  1  0
 10 30  1  0
 11 31  1  0
 11 32  1  0
 12 33  1  0
 12 34  1  0
 14 35  1  0
 14 36  1  0
 15 37  1  0
 15 38  1  0
 16 39  1  0
 18 40  1  0
 19 41  1  0
 21 42  1  0
 21 43  1  0
 21 44  1  0
M  ISO  8  22  14  23  14  24  13  25  13  26  13  27  13  28  13  29  13
M  ISO  8  30  13  31  13  32  13  33  13  34  13  35   8  36   8  37   8
M  ISO  7  38   8  39   5  40   3  41   3  42   8  43   8  44   8
M  END
>  <minimizedAffinity>  (1) 
-5.11799002

>  <minimizedRMSD>  (1) 
0.738012373

$$$$
