
     RDKit          3D

 29 30  0  0  1  0  0  0  0  0999 V2000
   46.6100   34.0050   41.8720 C   0  0  1  0  0  0  0  0  0  0  0  0
   45.6970   34.0110   40.6740 C   0  0  0  0  0  0  0  0  0  0  0  0
   46.4560   33.2960   39.5680 C   0  0  0  0  0  0  0  0  0  0  0  0
   47.6250   34.1590   39.1870 C   0  0  0  0  0  0  0  0  0  0  0  0
   48.5130   34.4900   40.3370 C   0  0  0  0  0  0  0  0  0  0  0  0
   47.8120   34.8840   41.5860 C   0  0  2  0  0  0  0  0  0  0  0  0
   44.6630   36.1410   44.3490 C   0  0  0  0  0  0  0  0  0  0  0  0
   45.2750   35.7410   43.1650 C   0  0  0  0  0  0  0  0  0  0  0  0
   45.9370   34.5010   43.0880 C   0  0  0  0  0  0  0  0  0  0  0  0
   45.9370   33.7460   44.2170 N   0  0  0  0  0  0  0  0  0  0  0  0
   45.3380   34.1520   45.3560 C   0  0  0  0  0  0  0  0  0  0  0  0
   44.7070   35.3270   45.4380 N   0  0  0  0  0  0  0  0  0  0  0  0
   48.7220   34.8110   42.7750 C   0  0  0  0  0  0  0  0  0  0  0  0
   46.9151   32.9638   42.0530 H   0  0  0  0  0  0  0  0  0  0  0  0
   44.7622   33.4782   40.9027 H   0  0  0  0  0  0  0  0  0  0  0  0
   45.4239   35.0351   40.3795 H   0  0  0  0  0  0  0  0  0  0  0  0
   46.8124   32.3197   39.9284 H   0  0  0  0  0  0  0  0  0  0  0  0
   45.8028   33.1255   38.6995 H   0  0  0  0  0  0  0  0  0  0  0  0
   48.2190   33.6274   38.4290 H   0  0  0  0  0  0  0  0  0  0  0  0
   47.2190   35.1074   38.8054 H   0  0  0  0  0  0  0  0  0  0  0  0
   49.1284   33.6052   40.5571 H   0  0  0  0  0  0  0  0  0  0  0  0
   49.0991   35.3676   40.0267 H   0  0  0  0  0  0  0  0  0  0  0  0
   47.4802   35.9199   41.4226 H   0  0  0  0  0  0  0  0  0  0  0  0
   44.1463   37.1105   44.4041 H   0  0  0  0  0  0  0  0  0  0  0  0
   45.2413   36.3980   42.2834 H   0  0  0  0  0  0  0  0  0  0  0  0
   45.3700   33.4985   46.2402 H   0  0  0  0  0  0  0  0  0  0  0  0
   48.1246   34.8589   43.6974 H   0  0  0  0  0  0  0  0  0  0  0  0
   49.2827   33.8650   42.7500 H   0  0  0  0  0  0  0  0  0  0  0  0
   49.4264   35.6555   42.7500 H   0  0  0  0  0  0  0  0  0  0  0  0
  1  9  1  0
  2  1  1  0
  3  2  1  0
  4  3  1  0
  4  5  1  0
  5  6  1  0
  6  1  1  0
  6 13  1  0
  7 12  2  0
  8  7  1  0
  9  8  2  0
  9 10  1  0
 10 11  2  0
 11 12  1  0
  1 14  1  1
  2 15  1  0
  2 16  1  0
  3 17  1  0
  3 18  1  0
  4 19  1  0
  4 20  1  0
  5 21  1  0
  5 22  1  0
  6 23  1  6
  7 24  1  0
  8 25  1  0
 11 26  1  0
 13 27  1  0
 13 28  1  0
 13 29  1  0
M  ISO  8  14  13  15  13  16  13  17  13  18  13  19  13  20  13  21  13
M  ISO  8  22  13  23  13  24  14  25  14  26  14  27   8  28   8  29   8
M  END
>  <minimizedAffinity>  (1) 
-4.58573818

>  <minimizedRMSD>  (1) 
0.605576158

$$$$
