
     RDKit          3D

 33 35  0  0  1  0  0  0  0  0999 V2000
   48.7730   35.5730   40.7430 C   0  0  0  0  0  0  0  0  0  0  0  0
   48.4900   34.7830   39.6310 C   0  0  0  0  0  0  0  0  0  0  0  0
   47.5980   33.7120   39.7900 C   0  0  0  0  0  0  0  0  0  0  0  0
   47.0600   33.5000   41.0060 N   0  0  0  0  0  0  0  0  0  0  0  0
   47.3510   34.2830   42.0720 C   0  0  0  0  0  0  0  0  0  0  0  0
   48.2100   35.3240   41.9400 N   0  0  0  0  0  0  0  0  0  0  0  0
   44.9840   36.0070   42.8880 Cl  0  0  0  0  0  0  0  0  0  0  0  0
   45.7060   34.7530   43.8510 C   0  0  0  0  0  0  0  0  0  0  0  0
   46.7640   34.0450   43.3820 C   0  0  0  0  0  0  0  0  0  0  0  0
   47.2570   33.0720   44.2340 C   0  0  0  0  0  0  0  0  0  0  0  0
   46.7700   32.7770   45.4820 C   0  0  0  0  0  0  0  0  0  0  0  0
   45.6910   33.5210   45.9230 C   0  0  0  0  0  0  0  0  0  0  0  0
   45.0730   33.1410   47.5190 Cl  0  0  0  0  0  0  0  0  0  0  0  0
   45.1540   34.5120   45.1080 C   0  0  0  0  0  0  0  0  0  0  0  0
   46.4410   33.4780   37.5820 C   0  0  2  0  0  0  0  0  0  0  0  0
   47.2240   32.8130   38.6970 C   0  0  1  0  0  0  0  0  0  0  0  0
   48.2890   32.2980   37.9730 O   0  0  0  0  0  0  0  0  0  0  0  0
   47.6310   31.5400   36.9990 C   0  0  0  0  0  0  0  0  0  0  0  0
   46.3820   32.2930   36.6080 C   0  0  2  0  0  0  0  0  0  0  0  0
   47.1890   34.4880   36.9710 O   0  0  0  0  0  0  0  0  0  0  0  0
   46.4570   32.6830   35.2890 O   0  0  0  0  0  0  0  0  0  0  0  0
   49.4706   36.4173   40.6408 H   0  0  0  0  0  0  0  0  0  0  0  0
   48.9530   34.9931   38.6556 H   0  0  0  0  0  0  0  0  0  0  0  0
   48.1155   32.4830   43.8789 H   0  0  0  0  0  0  0  0  0  0  0  0
   47.2166   31.9861   46.1025 H   0  0  0  0  0  0  0  0  0  0  0  0
   44.2948   35.1048   45.4550 H   0  0  0  0  0  0  0  0  0  0  0  0
   45.4914   33.9352   37.8971 H   0  0  0  0  0  0  0  0  0  0  0  0
   46.6614   32.0566   39.2639 H   0  0  0  0  0  0  0  0  0  0  0  0
   48.2814   31.4093   36.1215 H   0  0  0  0  0  0  0  0  0  0  0  0
   47.3774   30.5431   37.3886 H   0  0  0  0  0  0  0  0  0  0  0  0
   45.4424   31.7248   36.6734 H   0  0  0  0  0  0  0  0  0  0  0  0
   47.6085   35.0544   37.6662 H   0  0  0  0  0  0  0  0  0  0  0  0
   46.6437   33.6541   35.2421 H   0  0  0  0  0  0  0  0  0  0  0  0
  1  6  2  0
  2  3  2  0
  2  1  1  0
  3  4  1  0
  4  5  2  0
  5  9  1  0
  6  5  1  0
  7  8  1  0
  8 14  2  0
  9  8  1  0
  9 10  2  0
 10 11  1  0
 11 12  2  0
 12 13  1  0
 14 12  1  0
 15 20  1  0
 15 16  1  0
 16  3  1  0
 17 16  1  0
 18 17  1  0
 19 21  1  0
 19 18  1  0
 19 15  1  0
  1 22  1  0
  2 23  1  0
 10 24  1  0
 11 25  1  0
 14 26  1  0
 15 27  1  1
 16 28  1  1
 18 29  1  0
 18 30  1  0
 19 31  1  6
 20 32  1  0
 21 33  1  0
M  ISO  8  22  14  23  14  24  14  25  14  26  14  27  13  28  13  29  13
M  ISO  4  30  13  31  13  32   3  33   3
M  END
>  <minimizedAffinity>  (1) 
-6.08048773

>  <minimizedRMSD>  (1) 
0.532841325

$$$$
