
     RDKit          3D

 32 34  0  0  0  0  0  0  0  0999 V2000
   48.7310   35.3630   40.9380 C   0  0  0  0  0  0  0  0  0  0  0  0
   48.2150   34.7750   39.7850 C   0  0  0  0  0  0  0  0  0  0  0  0
   47.1440   33.8750   39.9210 C   0  0  0  0  0  0  0  0  0  0  0  0
   46.6880   33.6440   41.1780 N   0  0  0  0  0  0  0  0  0  0  0  0
   47.2010   34.2220   42.2720 C   0  0  0  0  0  0  0  0  0  0  0  0
   48.2390   35.0970   42.1610 N   0  0  0  0  0  0  0  0  0  0  0  0
   44.9510   36.0130   43.2770 Cl  0  0  0  0  0  0  0  0  0  0  0  0
   45.6670   34.6900   44.1580 C   0  0  0  0  0  0  0  0  0  0  0  0
   46.6810   33.9460   43.6020 C   0  0  0  0  0  0  0  0  0  0  0  0
   47.1730   32.9260   44.3830 C   0  0  0  0  0  0  0  0  0  0  0  0
   46.7340   32.6050   45.6490 C   0  0  0  0  0  0  0  0  0  0  0  0
   45.7140   33.3720   46.1750 C   0  0  0  0  0  0  0  0  0  0  0  0
   45.1780   32.9340   47.7910 Cl  0  0  0  0  0  0  0  0  0  0  0  0
   45.1840   34.4030   45.4400 C   0  0  0  0  0  0  0  0  0  0  0  0
   46.5040   33.1910   38.8520 N   0  0  0  0  0  0  0  0  0  0  0  0
   45.4230   32.2500   38.8280 C   0  0  0  0  0  0  0  0  0  0  0  0
   44.5900   32.5810   37.6320 C   0  0  0  0  0  0  0  0  0  0  0  0
   45.5340   33.2730   36.7000 C   0  0  0  0  0  0  0  0  0  0  0  0
   46.8590   33.3290   37.4350 C   0  0  0  0  0  0  0  0  0  0  0  0
   49.5694   36.0689   40.8447 H   0  0  0  0  0  0  0  0  0  0  0  0
   48.6344   35.0088   38.7953 H   0  0  0  0  0  0  0  0  0  0  0  0
   47.9851   32.3154   43.9614 H   0  0  0  0  0  0  0  0  0  0  0  0
   47.1773   31.7733   46.2162 H   0  0  0  0  0  0  0  0  0  0  0  0
   44.3705   35.0105   45.8632 H   0  0  0  0  0  0  0  0  0  0  0  0
   45.8144   31.2253   38.7452 H   0  0  0  0  0  0  0  0  0  0  0  0
   44.8285   32.3076   39.7517 H   0  0  0  0  0  0  0  0  0  0  0  0
   44.1894   31.6659   37.1715 H   0  0  0  0  0  0  0  0  0  0  0  0
   43.7203   33.2045   37.8867 H   0  0  0  0  0  0  0  0  0  0  0  0
   45.1763   34.2884   36.4741 H   0  0  0  0  0  0  0  0  0  0  0  0
   45.6216   32.7436   35.7398 H   0  0  0  0  0  0  0  0  0  0  0  0
   47.5143   32.5047   37.1170 H   0  0  0  0  0  0  0  0  0  0  0  0
   47.4089   34.2598   37.2321 H   0  0  0  0  0  0  0  0  0  0  0  0
  1  6  2  0
  2  3  2  0
  2  1  1  0
  3  4  1  0
  4  5  2  0
  5  9  1  0
  6  5  1  0
  7  8  1  0
  8 14  2  0
  9  8  1  0
  9 10  2  0
 10 11  1  0
 11 12  2  0
 12 13  1  0
 14 12  1  0
 15  3  1  0
 16 15  1  0
 17 16  1  0
 18 19  1  0
 18 17  1  0
 19 15  1  0
  1 20  1  0
  2 21  1  0
 10 22  1  0
 11 23  1  0
 14 24  1  0
 16 25  1  0
 16 26  1  0
 17 27  1  0
 17 28  1  0
 18 29  1  0
 18 30  1  0
 19 31  1  0
 19 32  1  0
M  ISO  8  20  14  21  14  22  14  23  14  24  14  25  13  26  13  27  13
M  ISO  5  28  13  29  13  30  13  31  13  32  13
M  END
>  <minimizedAffinity>  (1) 
-5.40892649

>  <minimizedRMSD>  (1) 
0.0613574497

$$$$
