
     RDKit          3D

 23 24  0  0  0  0  0  0  0  0999 V2000
   45.0080   36.0380   43.2810 Cl  0  0  0  0  0  0  0  0  0  0  0  0
   45.7170   34.7080   44.1510 C   0  0  0  0  0  0  0  0  0  0  0  0
   46.7430   33.9860   43.6190 C   0  0  0  0  0  0  0  0  0  0  0  0
   47.2300   32.9600   44.3860 C   0  0  0  0  0  0  0  0  0  0  0  0
   46.7500   32.6220   45.6400 C   0  0  0  0  0  0  0  0  0  0  0  0
   45.7130   33.3710   46.1490 C   0  0  0  0  0  0  0  0  0  0  0  0
   45.1410   32.9050   47.7380 Cl  0  0  0  0  0  0  0  0  0  0  0  0
   45.1930   34.4130   45.4110 C   0  0  0  0  0  0  0  0  0  0  0  0
   48.8250   35.5010   41.0250 C   0  0  0  0  0  0  0  0  0  0  0  0
   48.3640   34.8880   39.8460 C   0  0  0  0  0  0  0  0  0  0  0  0
   47.3270   33.9450   39.9440 C   0  0  0  0  0  0  0  0  0  0  0  0
   46.8440   33.6950   41.1850 N   0  0  0  0  0  0  0  0  0  0  0  0
   47.2990   34.2910   42.2950 C   0  0  0  0  0  0  0  0  0  0  0  0
   48.2960   35.1990   42.2200 N   0  0  0  0  0  0  0  0  0  0  0  0
   46.7660   33.2410   38.7730 C   0  0  0  0  0  0  0  0  0  0  0  0
   48.0593   32.3640   43.9773 H   0  0  0  0  0  0  0  0  0  0  0  0
   47.1816   31.7853   46.2090 H   0  0  0  0  0  0  0  0  0  0  0  0
   44.3642   35.0127   45.8154 H   0  0  0  0  0  0  0  0  0  0  0  0
   49.6353   36.2426   40.9659 H   0  0  0  0  0  0  0  0  0  0  0  0
   48.8048   35.1408   38.8704 H   0  0  0  0  0  0  0  0  0  0  0  0
   46.1143   32.4232   39.1144 H   0  0  0  0  0  0  0  0  0  0  0  0
   46.1805   33.9475   38.1663 H   0  0  0  0  0  0  0  0  0  0  0  0
   47.5853   32.8280   38.1663 H   0  0  0  0  0  0  0  0  0  0  0  0
  1  2  1  0
  2  8  2  0
  3  2  1  0
  3  4  2  0
  4  5  1  0
  5  6  2  0
  6  7  1  0
  8  6  1  0
  9 14  2  0
 10 11  2  0
 10  9  1  0
 11 12  1  0
 12 13  2  0
 13  3  1  0
 14 13  1  0
 15 11  1  0
  4 16  1  0
  5 17  1  0
  8 18  1  0
  9 19  1  0
 10 20  1  0
 15 21  1  0
 15 22  1  0
 15 23  1  0
M  ISO  8  16  14  17  14  18  14  19  14  20  14  21   8  22   8  23   8
M  END
>  <minimizedAffinity>  (1) 
-4.9489913

>  <minimizedRMSD>  (1) 
0.096654959

$$$$
