
     RDKit          3D

 44 47  0  0  0  0  0  0  0  0999 V2000
   48.8060   35.3780   40.9550 C   0  0  0  0  0  0  0  0  0  0  0  0
   48.2340   34.8370   39.7960 C   0  0  0  0  0  0  0  0  0  0  0  0
   47.1810   33.9420   39.9210 C   0  0  0  0  0  0  0  0  0  0  0  0
   46.7590   33.6480   41.1730 N   0  0  0  0  0  0  0  0  0  0  0  0
   47.3050   34.1730   42.2820 C   0  0  0  0  0  0  0  0  0  0  0  0
   48.3340   35.0390   42.1770 N   0  0  0  0  0  0  0  0  0  0  0  0
   45.0580   35.9890   43.2720 Cl  0  0  0  0  0  0  0  0  0  0  0  0
   45.7500   34.6460   44.1520 C   0  0  0  0  0  0  0  0  0  0  0  0
   46.7750   33.8800   43.5980 C   0  0  0  0  0  0  0  0  0  0  0  0
   47.2290   32.8610   44.3660 C   0  0  0  0  0  0  0  0  0  0  0  0
   46.7370   32.5600   45.6290 C   0  0  0  0  0  0  0  0  0  0  0  0
   45.7300   33.3290   46.1480 C   0  0  0  0  0  0  0  0  0  0  0  0
   45.1970   32.8450   47.7460 Cl  0  0  0  0  0  0  0  0  0  0  0  0
   45.2370   34.3670   45.4170 C   0  0  0  0  0  0  0  0  0  0  0  0
   49.1130   32.7600   37.9630 Cl  0  0  0  0  0  0  0  0  0  0  0  0
   47.3660   32.7910   37.7790 C   0  0  0  0  0  0  0  0  0  0  0  0
   46.5990   33.3100   38.7680 C   0  0  0  0  0  0  0  0  0  0  0  0
   45.2350   33.1800   38.5750 C   0  0  0  0  0  0  0  0  0  0  0  0
   44.6380   32.5830   37.4840 C   0  0  0  0  0  0  0  0  0  0  0  0
   45.4570   32.0680   36.4930 C   0  0  0  0  0  0  0  0  0  0  0  0
   46.8320   32.1790   36.6530 C   0  0  0  0  0  0  0  0  0  0  0  0
   47.6530   31.6440   35.6210 N   0  0  0  0  0  0  0  0  0  0  0  0
   48.4070   32.5330   34.7350 C   0  0  0  0  0  0  0  0  0  0  0  0
   47.7860   32.3710   33.3700 C   0  0  0  0  0  0  0  0  0  0  0  0
   47.0280   31.1590   33.2180 N   0  0  0  0  0  0  0  0  0  0  0  0
   47.6100   30.0080   33.8680 C   0  0  0  0  0  0  0  0  0  0  0  0
   47.8240   30.2280   35.3480 C   0  0  0  0  0  0  0  0  0  0  0  0
   49.6454   36.0839   40.8709 H   0  0  0  0  0  0  0  0  0  0  0  0
   48.6138   35.1174   38.8024 H   0  0  0  0  0  0  0  0  0  0  0  0
   48.0377   32.2329   43.9642 H   0  0  0  0  0  0  0  0  0  0  0  0
   47.1495   31.7174   46.2033 H   0  0  0  0  0  0  0  0  0  0  0  0
   44.4284   34.9893   45.8281 H   0  0  0  0  0  0  0  0  0  0  0  0
   44.5732   33.5855   39.3545 H   0  0  0  0  0  0  0  0  0  0  0  0
   43.5429   32.5179   37.4035 H   0  0  0  0  0  0  0  0  0  0  0  0
   45.0296   31.5838   35.6026 H   0  0  0  0  0  0  0  0  0  0  0  0
   48.3210   33.5758   35.0742 H   0  0  0  0  0  0  0  0  0  0  0  0
   49.4784   32.2841   34.7259 H   0  0  0  0  0  0  0  0  0  0  0  0
   47.1155   33.2243   33.1905 H   0  0  0  0  0  0  0  0  0  0  0  0
   48.6123   32.3254   32.6453 H   0  0  0  0  0  0  0  0  0  0  0  0
   46.0900   31.3134   33.6146 H   0  0  0  0  0  0  0  0  0  0  0  0
   46.9374   29.1482   33.7324 H   0  0  0  0  0  0  0  0  0  0  0  0
   48.5938   29.8267   33.4105 H   0  0  0  0  0  0  0  0  0  0  0  0
   47.0882   29.6457   35.9221 H   0  0  0  0  0  0  0  0  0  0  0  0
   48.8329   29.9017   35.6407 H   0  0  0  0  0  0  0  0  0  0  0  0
  1  6  2  0
  2  3  2  0
  2  1  1  0
  3  4  1  0
  4  5  2  0
  5  9  1  0
  6  5  1  0
  7  8  1  0
  8 14  2  0
  9  8  1  0
  9 10  2  0
 10 11  1  0
 11 12  2  0
 12 13  1  0
 14 12  1  0
 16 15  1  0
 16 17  2  0
 17  3  1  0
 18 17  1  0
 19 18  2  0
 20 21  2  0
 20 19  1  0
 21 16  1  0
 22 21  1  0
 23 22  1  0
 24 23  1  0
 25 24  1  0
 25 26  1  0
 26 27  1  0
 27 22  1  0
  1 28  1  0
  2 29  1  0
 10 30  1  0
 11 31  1  0
 14 32  1  0
 18 33  1  0
 19 34  1  0
 20 35  1  0
 23 36  1  0
 23 37  1  0
 24 38  1  0
 24 39  1  0
 25 40  1  0
 26 41  1  0
 26 42  1  0
 27 43  1  0
 27 44  1  0
M  ISO  8  28  14  29  14  30  14  31  14  32  14  33  14  34  14  35  14
M  ISO  8  36  13  37  13  38  13  39  13  40   5  41  13  42  13  43  13
M  ISO  1  44  13
M  END
>  <minimizedAffinity>  (1) 
-6.50656319

>  <minimizedRMSD>  (1) 
1.15832853

$$$$
