
     RDKit          3D

 34 35  0  0  1  0  0  0  0  0999 V2000
   44.9010   33.3080   41.7020 C   0  0  1  0  0  0  0  0  0  0  0  0
   43.8060   33.7430   40.7720 C   0  0  0  0  0  0  0  0  0  0  0  0
   43.8470   32.7480   39.6150 C   0  0  0  0  0  0  0  0  0  0  0  0
   45.0980   33.1180   38.8260 C   0  0  0  0  0  0  0  0  0  0  0  0
   46.3330   33.0820   39.6340 C   0  0  0  0  0  0  0  0  0  0  0  0
   46.2450   33.5260   41.0470 C   0  0  1  0  0  0  0  0  0  0  0  0
   44.3080   35.8260   44.4740 C   0  0  0  0  0  0  0  0  0  0  0  0
   44.2720   35.2630   43.1910 C   0  0  0  0  0  0  0  0  0  0  0  0
   44.8690   34.0030   42.9990 C   0  0  0  0  0  0  0  0  0  0  0  0
   45.4420   33.4230   44.0880 N   0  0  0  0  0  0  0  0  0  0  0  0
   45.4600   33.9870   45.2980 C   0  0  0  0  0  0  0  0  0  0  0  0
   44.8930   35.1940   45.5070 N   0  0  0  0  0  0  0  0  0  0  0  0
   46.7390   34.8830   41.2080 N   0  0  0  0  0  0  0  0  0  0  0  0
   48.4680   34.8250   40.9630 S   0  0  0  0  0  0  0  0  0  0  0  0
   49.0070   33.5030   41.4250 O   0  0  0  0  0  0  0  0  0  0  0  0
   49.0870   35.9760   41.7020 O   0  0  0  0  0  0  0  0  0  0  0  0
   48.7890   35.0310   39.3080 O   0  0  0  0  0  0  0  0  0  0  0  0
   44.7379   32.2392   41.9047 H   0  0  0  0  0  0  0  0  0  0  0  0
   42.8308   33.7050   41.2794 H   0  0  0  0  0  0  0  0  0  0  0  0
   43.9442   34.7791   40.4292 H   0  0  0  0  0  0  0  0  0  0  0  0
   43.9181   31.7174   39.9928 H   0  0  0  0  0  0  0  0  0  0  0  0
   42.9383   32.7930   38.9968 H   0  0  0  0  0  0  0  0  0  0  0  0
   45.2064   32.4092   37.9918 H   0  0  0  0  0  0  0  0  0  0  0  0
   44.9679   34.1533   38.4779 H   0  0  0  0  0  0  0  0  0  0  0  0
   46.6930   32.0426   39.6379 H   0  0  0  0  0  0  0  0  0  0  0  0
   47.0012   33.8121   39.1539 H   0  0  0  0  0  0  0  0  0  0  0  0
   46.9153   32.8556   41.6049 H   0  0  0  0  0  0  0  0  0  0  0  0
   43.8458   36.8102   44.6404 H   0  0  0  0  0  0  0  0  0  0  0  0
   43.7897   35.7921   42.3559 H   0  0  0  0  0  0  0  0  0  0  0  0
   45.9429   33.4615   46.1350 H   0  0  0  0  0  0  0  0  0  0  0  0
   46.3030   35.5038   40.5113 H   0  0  0  0  0  0  0  0  0  0  0  0
   49.0170   33.4784   42.4146 H   0  0  0  0  0  0  0  0  0  0  0  0
   49.0054   35.8244   42.6769 H   0  0  0  0  0  0  0  0  0  0  0  0
   49.6168   35.5623   39.1960 H   0  0  0  0  0  0  0  0  0  0  0  0
  1  9  1  0
  2  1  1  0
  3  2  1  0
  4  3  1  0
  4  5  1  0
  5  6  1  0
  6 13  1  0
  6  1  1  0
  7 12  2  0
  8  7  1  0
  9  8  2  0
  9 10  1  0
 10 11  2  0
 11 12  1  0
 14 13  1  0
 14 15  1  0
 14 16  1  0
 17 14  1  0
  1 18  1  1
  2 19  1  0
  2 20  1  0
  3 21  1  0
  3 22  1  0
  4 23  1  0
  4 24  1  0
  5 25  1  0
  5 26  1  0
  6 27  1  1
  7 28  1  0
  8 29  1  0
 11 30  1  0
 13 31  1  0
 15 32  1  0
 16 33  1  0
 17 34  1  0
M  ISO  8  18  13  19  13  20  13  21  13  22  13  23  13  24  13  25  13
M  ISO  8  26  13  27  13  28  14  29  14  30  14  31   5  32   3  33   3
M  ISO  1  34   3
M  END
>  <minimizedAffinity>  (1) 
-4.38676357

>  <minimizedRMSD>  (1) 
2.54497099

$$$$
