
     RDKit          3D

 20 20  0  0  0  0  0  0  0  0999 V2000
   46.1580   33.2930   41.2200 O   0  0  0  0  0  0  0  0  0  0  0  0
   44.7170   33.2060   39.3280 C   0  0  0  0  0  0  0  0  0  0  0  0
   45.0300   33.7690   40.5870 C   0  0  0  0  0  0  0  0  0  0  0  0
   44.1680   34.7580   41.0830 C   0  0  0  0  0  0  0  0  0  0  0  0
   43.0990   35.1240   40.3530 N   0  0  0  0  0  0  0  0  0  0  0  0
   42.8300   34.5670   39.1550 C   0  0  0  0  0  0  0  0  0  0  0  0
   43.6410   33.6130   38.6520 N   0  0  0  0  0  0  0  0  0  0  0  0
   48.0460   34.8800   40.2890 O   0  0  0  0  0  0  0  0  0  0  0  0
   47.4980   34.3010   41.5430 P   0  0  1  0  0  0  0  0  0  0  0  0
   47.0370   35.5880   42.5690 O   0  0  0  0  0  0  0  0  0  0  0  0
   48.7310   33.4230   42.3050 O   0  0  0  0  0  0  0  0  0  0  0  0
   50.0440   33.8460   42.4500 C   0  0  0  0  0  0  0  0  0  0  0  0
   51.0830   33.1670   42.1960 O   0  0  0  0  0  0  0  0  0  0  0  0
   50.0860   35.1870   42.9400 N   0  0  0  0  0  0  0  0  0  0  0  0
   45.3658   32.4262   38.9026 H   0  0  0  0  0  0  0  0  0  0  0  0
   44.3638   35.2289   42.0576 H   0  0  0  0  0  0  0  0  0  0  0  0
   41.9464   34.8913   38.5857 H   0  0  0  0  0  0  0  0  0  0  0  0
   47.1369   35.3090   43.5136 H   0  0  0  0  0  0  0  0  0  0  0  0
   50.9927   35.6480   43.1019 H   0  0  0  0  0  0  0  0  0  0  0  0
   49.2095   35.6930   43.1315 H   0  0  0  0  0  0  0  0  0  0  0  0
  1  9  1  0
  2  3  2  0
  3  4  1  0
  3  1  1  0
  5  4  2  0
  6  5  1  0
  7  6  2  0
  7  2  1  0
  9  8  2  0
  9 11  1  0
  9 10  1  0
 11 12  1  0
 12 14  1  0
 13 12  2  0
  2 15  1  0
  4 16  1  0
  6 17  1  0
 10 18  1  0
 14 19  1  0
 14 20  1  0
M  ISO  4  15  14  16  14  17  14  18   3
M  END
>  <minimizedAffinity>  (1) 
-3.76767063

>  <minimizedRMSD>  (1) 
3.78269029

$$$$
