
     RDKit          3D

 35 37  0  0  0  0  0  0  0  0999 V2000
   47.4800   34.0100   39.3820 C   0  0  0  0  0  0  0  0  0  0  0  0
   46.3150   33.5820   39.7070 O   0  0  0  0  0  0  0  0  0  0  0  0
   47.7600   33.4540   38.0430 C   0  0  0  0  0  0  0  0  0  0  0  0
   48.9050   33.7350   37.2320 C   0  0  0  0  0  0  0  0  0  0  0  0
   48.9010   33.0760   36.0280 C   0  0  0  0  0  0  0  0  0  0  0  0
   47.9160   32.2470   35.6530 C   0  0  0  0  0  0  0  0  0  0  0  0
   46.7390   32.3270   37.1600 S   0  0  0  0  0  0  0  0  0  0  0  0
   47.6600   31.4840   34.5500 N   0  0  0  0  0  0  0  0  0  0  0  0
   47.1530   30.2490   34.7290 C   0  0  0  0  0  0  0  0  0  0  0  0
   46.8880   29.4620   33.6060 C   0  0  0  0  0  0  0  0  0  0  0  0
   47.1610   29.9870   32.3390 C   0  0  0  0  0  0  0  0  0  0  0  0
   46.9370   29.3040   31.2890 O   0  0  0  0  0  0  0  0  0  0  0  0
   47.6740   31.2420   32.2220 N   0  0  0  0  0  0  0  0  0  0  0  0
   47.9220   31.9870   33.3300 C   0  0  0  0  0  0  0  0  0  0  0  0
   48.3950   33.1340   33.1240 O   0  0  0  0  0  0  0  0  0  0  0  0
   48.0180   34.7890   40.3450 O   0  0  0  0  0  0  0  0  0  0  0  0
   49.3670   35.4780   42.4320 O   0  0  0  0  0  0  0  0  0  0  0  0
   48.7870   34.2910   41.7340 P   0  0  2  0  0  0  0  0  0  0  0  0
   50.0510   33.2730   41.3140 O   0  0  0  0  0  0  0  0  0  0  0  0
   47.6640   33.4850   42.7640 O   0  0  0  0  0  0  0  0  0  0  0  0
   46.1120   35.2960   42.7550 C   0  0  0  0  0  0  0  0  0  0  0  0
   46.6480   34.2000   43.4040 C   0  0  0  0  0  0  0  0  0  0  0  0
   46.1560   33.8510   44.6690 C   0  0  0  0  0  0  0  0  0  0  0  0
   45.1590   34.6310   45.1910 N   0  0  0  0  0  0  0  0  0  0  0  0
   44.6570   35.6890   44.5400 C   0  0  0  0  0  0  0  0  0  0  0  0
   45.1300   36.0200   43.3290 N   0  0  0  0  0  0  0  0  0  0  0  0
   49.7118   34.4146   37.5439 H   0  0  0  0  0  0  0  0  0  0  0  0
   49.7440   33.2351   35.3395 H   0  0  0  0  0  0  0  0  0  0  0  0
   46.9514   29.8674   35.7408 H   0  0  0  0  0  0  0  0  0  0  0  0
   46.4728   28.4493   33.7160 H   0  0  0  0  0  0  0  0  0  0  0  0
   47.8751   31.6286   31.2887 H   0  0  0  0  0  0  0  0  0  0  0  0
   50.4819   32.9259   42.1349 H   0  0  0  0  0  0  0  0  0  0  0  0
   46.4897   35.5802   41.7617 H   0  0  0  0  0  0  0  0  0  0  0  0
   46.5543   32.9862   45.2198 H   0  0  0  0  0  0  0  0  0  0  0  0
   43.8560   36.2870   44.9991 H   0  0  0  0  0  0  0  0  0  0  0  0
  1  2  2  0
  1 16  1  0
  3  1  1  0
  4  3  2  0
  5  4  1  0
  6  5  2  0
  6  7  1  0
  7  3  1  0
  8  9  1  0
  8  6  1  0
 10  9  2  0
 11 10  1  0
 12 11  2  0
 13 11  1  0
 13 14  1  0
 14  8  1  0
 15 14  2  0
 16 18  1  0
 18 17  2  0
 18 20  1  0
 19 18  1  0
 20 22  1  0
 21 26  2  0
 21 22  1  0
 22 23  2  0
 23 24  1  0
 25 24  2  0
 26 25  1  0
  4 27  1  0
  5 28  1  0
  9 29  1  0
 10 30  1  0
 13 31  1  0
 19 32  1  0
 21 33  1  0
 23 34  1  0
 25 35  1  0
M  ISO  8  27  14  28  14  29  14  30  14  31   9  32   3  33  14  34  14
M  ISO  1  35  14
M  END
>  <minimizedAffinity>  (1) 
-5.76977301

>  <minimizedRMSD>  (1) 
0.370150387

$$$$
