
     RDKit          3D

 40 42  0  0  0  0  0  0  0  0999 V2000
   47.4850   33.9670   39.4970 C   0  0  0  0  0  0  0  0  0  0  0  0
   46.4380   33.3780   39.9620 O   0  0  0  0  0  0  0  0  0  0  0  0
   47.6180   33.4860   38.1060 C   0  0  0  0  0  0  0  0  0  0  0  0
   48.8700   33.2730   37.4170 C   0  0  0  0  0  0  0  0  0  0  0  0
   48.6960   32.8220   36.1280 C   0  0  0  0  0  0  0  0  0  0  0  0
   47.4950   32.6050   35.5840 C   0  0  0  0  0  0  0  0  0  0  0  0
   46.3110   33.0760   37.0110 S   0  0  0  0  0  0  0  0  0  0  0  0
   47.0500   32.1600   34.3690 N   0  0  0  0  0  0  0  0  0  0  0  0
   47.8660   32.3310   33.1600 C   0  0  0  0  0  0  0  0  0  0  0  0
   48.3760   30.9320   32.8260 C   0  0  0  0  0  0  0  0  0  0  0  0
   47.2860   29.9280   32.6600 C   0  0  0  0  0  0  0  0  0  0  0  0
   46.1350   30.0740   33.5990 C   0  0  0  0  0  0  0  0  0  0  0  0
   45.8200   31.4990   33.9790 C   0  0  0  0  0  0  0  0  0  0  0  0
   48.0590   34.7780   40.4120 O   0  0  0  0  0  0  0  0  0  0  0  0
   49.4390   35.5240   42.4530 O   0  0  0  0  0  0  0  0  0  0  0  0
   48.8510   34.3030   41.8050 P   0  0  2  0  0  0  0  0  0  0  0  0
   50.1140   33.2920   41.3870 O   0  0  0  0  0  0  0  0  0  0  0  0
   47.7610   33.5160   42.8700 O   0  0  0  0  0  0  0  0  0  0  0  0
   46.1920   35.3150   42.7960 C   0  0  0  0  0  0  0  0  0  0  0  0
   46.7130   34.2250   43.4610 C   0  0  0  0  0  0  0  0  0  0  0  0
   46.1750   33.8620   44.7060 C   0  0  0  0  0  0  0  0  0  0  0  0
   45.1420   34.6330   45.1910 N   0  0  0  0  0  0  0  0  0  0  0  0
   44.6660   35.6840   44.5160 C   0  0  0  0  0  0  0  0  0  0  0  0
   45.1850   36.0130   43.3410 N   0  0  0  0  0  0  0  0  0  0  0  0
   49.8550   33.4518   37.8728 H   0  0  0  0  0  0  0  0  0  0  0  0
   49.5897   32.6309   35.5157 H   0  0  0  0  0  0  0  0  0  0  0  0
   47.2560   32.7273   32.3348 H   0  0  0  0  0  0  0  0  0  0  0  0
   48.6888   33.0445   33.3146 H   0  0  0  0  0  0  0  0  0  0  0  0
   48.9478   30.9842   31.8877 H   0  0  0  0  0  0  0  0  0  0  0  0
   48.9955   30.6016   33.6728 H   0  0  0  0  0  0  0  0  0  0  0  0
   46.8998   30.0125   31.6335 H   0  0  0  0  0  0  0  0  0  0  0  0
   47.7374   28.9498   32.8824 H   0  0  0  0  0  0  0  0  0  0  0  0
   45.2440   29.6399   33.1218 H   0  0  0  0  0  0  0  0  0  0  0  0
   46.4185   29.5562   34.5272 H   0  0  0  0  0  0  0  0  0  0  0  0
   45.3758   32.0216   33.1190 H   0  0  0  0  0  0  0  0  0  0  0  0
   45.1055   31.5142   34.8152 H   0  0  0  0  0  0  0  0  0  0  0  0
   50.5457   32.9464   42.2082 H   0  0  0  0  0  0  0  0  0  0  0  0
   46.6021   35.6116   41.8194 H   0  0  0  0  0  0  0  0  0  0  0  0
   46.5615   32.9998   45.2692 H   0  0  0  0  0  0  0  0  0  0  0  0
   43.8411   36.2778   44.9366 H   0  0  0  0  0  0  0  0  0  0  0  0
  1  2  2  0
  1 14  1  0
  3  1  1  0
  4  3  2  0
  5  4  1  0
  6  5  2  0
  6  7  1  0
  7  3  1  0
  8  6  1  0
  9  8  1  0
 10  9  1  0
 11 10  1  0
 11 12  1  0
 12 13  1  0
 13  8  1  0
 14 16  1  0
 16 15  2  0
 16 18  1  0
 17 16  1  0
 18 20  1  0
 19 24  2  0
 19 20  1  0
 20 21  2  0
 21 22  1  0
 23 22  2  0
 24 23  1  0
  4 25  1  0
  5 26  1  0
  9 27  1  0
  9 28  1  0
 10 29  1  0
 10 30  1  0
 11 31  1  0
 11 32  1  0
 12 33  1  0
 12 34  1  0
 13 35  1  0
 13 36  1  0
 17 37  1  0
 19 38  1  0
 21 39  1  0
 23 40  1  0
M  ISO  8  25  14  26  14  27  13  28  13  29  13  30  13  31  13  32  13
M  ISO  8  33  13  34  13  35  13  36  13  37   3  38  14  39  14  40  14
M  END
>  <minimizedAffinity>  (1) 
-5.24179125

>  <minimizedRMSD>  (1) 
0.532887697

$$$$
