
     RDKit          3D

 37 39  0  0  0  0  0  0  0  0999 V2000
   48.0710   34.8160   40.4420 O   0  0  0  0  0  0  0  0  0  0  0  0
   49.4420   35.4790   42.5210 O   0  0  0  0  0  0  0  0  0  0  0  0
   48.8500   34.2970   41.8280 P   0  0  2  0  0  0  0  0  0  0  0  0
   50.1050   33.2780   41.3820 O   0  0  0  0  0  0  0  0  0  0  0  0
   47.7320   33.4920   42.8630 O   0  0  0  0  0  0  0  0  0  0  0  0
   46.1790   35.3200   42.8300 C   0  0  0  0  0  0  0  0  0  0  0  0
   46.6960   34.2080   43.4760 C   0  0  0  0  0  0  0  0  0  0  0  0
   46.1680   33.8380   44.7130 C   0  0  0  0  0  0  0  0  0  0  0  0
   45.1590   34.6020   45.2220 N   0  0  0  0  0  0  0  0  0  0  0  0
   44.6810   35.6750   44.5680 C   0  0  0  0  0  0  0  0  0  0  0  0
   45.1850   36.0290   43.3870 N   0  0  0  0  0  0  0  0  0  0  0  0
   47.4520   34.0440   39.5170 C   0  0  0  0  0  0  0  0  0  0  0  0
   46.3200   33.6000   39.9250 O   0  0  0  0  0  0  0  0  0  0  0  0
   47.6290   33.5130   38.1500 C   0  0  0  0  0  0  0  0  0  0  0  0
   48.8560   33.2850   37.4690 C   0  0  0  0  0  0  0  0  0  0  0  0
   48.7450   32.7910   36.2130 C   0  0  0  0  0  0  0  0  0  0  0  0
   47.5440   32.5360   35.6570 C   0  0  0  0  0  0  0  0  0  0  0  0
   46.3440   33.0440   37.0500 S   0  0  0  0  0  0  0  0  0  0  0  0
   47.1540   32.0220   34.4130 N   0  0  0  0  0  0  0  0  0  0  0  0
   45.7110   32.0590   34.1350 C   0  0  0  0  0  0  0  0  0  0  0  0
   45.4990   30.5400   33.9680 C   0  0  0  0  0  0  0  0  0  0  0  0
   46.7340   30.1500   33.1470 C   0  0  0  0  0  0  0  0  0  0  0  0
   47.5950   31.4310   33.2040 C   0  0  0  0  0  0  0  0  0  0  0  0
   50.5447   32.9210   42.1940 H   0  0  0  0  0  0  0  0  0  0  0  0
   46.5862   35.6234   41.8542 H   0  0  0  0  0  0  0  0  0  0  0  0
   46.5511   32.9626   45.2578 H   0  0  0  0  0  0  0  0  0  0  0  0
   43.8664   36.2658   45.0122 H   0  0  0  0  0  0  0  0  0  0  0  0
   49.8313   33.4960   37.9319 H   0  0  0  0  0  0  0  0  0  0  0  0
   49.6578   32.5929   35.6320 H   0  0  0  0  0  0  0  0  0  0  0  0
   45.1333   32.4726   34.9747 H   0  0  0  0  0  0  0  0  0  0  0  0
   45.3928   32.6911   33.2929 H   0  0  0  0  0  0  0  0  0  0  0  0
   45.4841   30.0266   34.9407 H   0  0  0  0  0  0  0  0  0  0  0  0
   44.5425   30.2687   33.4974 H   0  0  0  0  0  0  0  0  0  0  0  0
   46.4599   29.9016   32.1111 H   0  0  0  0  0  0  0  0  0  0  0  0
   47.2508   29.2581   33.5311 H   0  0  0  0  0  0  0  0  0  0  0  0
   48.6678   31.1912   33.2432 H   0  0  0  0  0  0  0  0  0  0  0  0
   47.4851   32.0815   32.3238 H   0  0  0  0  0  0  0  0  0  0  0  0
  1  3  1  0
  3  2  2  0
  3  5  1  0
  4  3  1  0
  5  7  1  0
  6 11  2  0
  6  7  1  0
  7  8  2  0
  8  9  1  0
 10  9  2  0
 11 10  1  0
 12 13  2  0
 12  1  1  0
 14 12  1  0
 15 14  2  0
 16 15  1  0
 17 16  2  0
 17 18  1  0
 18 14  1  0
 19 17  1  0
 20 19  1  0
 21 20  1  0
 22 23  1  0
 22 21  1  0
 23 19  1  0
  4 24  1  0
  6 25  1  0
  8 26  1  0
 10 27  1  0
 15 28  1  0
 16 29  1  0
 20 30  1  0
 20 31  1  0
 21 32  1  0
 21 33  1  0
 22 34  1  0
 22 35  1  0
 23 36  1  0
 23 37  1  0
M  ISO  8  24   3  25  14  26  14  27  14  28  14  29  14  30  13  31  13
M  ISO  6  32  13  33  13  34  13  35  13  36  13  37  13
M  END
>  <minimizedAffinity>  (1) 
-5.08581591

>  <minimizedRMSD>  (1) 
0.307020962

$$$$
