
     RDKit          3D

 32 34  0  0  0  0  0  0  0  0999 V2000
   48.0500   34.7980   40.3600 O   0  0  0  0  0  0  0  0  0  0  0  0
   49.3820   35.4730   42.4550 O   0  0  0  0  0  0  0  0  0  0  0  0
   48.8070   34.2910   41.7570 P   0  0  2  0  0  0  0  0  0  0  0  0
   50.0800   33.2690   41.3480 O   0  0  0  0  0  0  0  0  0  0  0  0
   47.6830   33.4750   42.7800 O   0  0  0  0  0  0  0  0  0  0  0  0
   46.1370   35.3010   42.7700 C   0  0  0  0  0  0  0  0  0  0  0  0
   46.6700   34.1870   43.4180 C   0  0  0  0  0  0  0  0  0  0  0  0
   46.1660   33.8330   44.6810 C   0  0  0  0  0  0  0  0  0  0  0  0
   45.1690   34.6140   45.2020 N   0  0  0  0  0  0  0  0  0  0  0  0
   44.6800   35.6810   44.5480 C   0  0  0  0  0  0  0  0  0  0  0  0
   45.1560   36.0240   43.3450 N   0  0  0  0  0  0  0  0  0  0  0  0
   47.4710   34.0210   39.4260 C   0  0  0  0  0  0  0  0  0  0  0  0
   46.3180   33.5610   39.8180 O   0  0  0  0  0  0  0  0  0  0  0  0
   47.6640   33.4750   38.0710 C   0  0  0  0  0  0  0  0  0  0  0  0
   48.7150   33.7910   37.1640 C   0  0  0  0  0  0  0  0  0  0  0  0
   48.6640   33.1430   35.9690 C   0  0  0  0  0  0  0  0  0  0  0  0
   47.6940   32.2700   35.6730 C   0  0  0  0  0  0  0  0  0  0  0  0
   46.6450   32.3030   37.2640 S   0  0  0  0  0  0  0  0  0  0  0  0
   47.2770   31.4360   34.6450 C   0  0  0  0  0  0  0  0  0  0  0  0
   47.9650   31.1310   33.5220 C   0  0  0  0  0  0  0  0  0  0  0  0
   47.4190   30.2910   32.5950 C   0  0  0  0  0  0  0  0  0  0  0  0
   46.0690   29.7610   32.9080 C   0  0  0  0  0  0  0  0  0  0  0  0
   45.7050   30.5330   34.5270 S   0  0  0  0  0  0  0  0  0  0  0  0
   50.5065   32.9266   42.1732 H   0  0  0  0  0  0  0  0  0  0  0  0
   46.5207   35.5919   41.7810 H   0  0  0  0  0  0  0  0  0  0  0  0
   46.5567   32.9632   45.2294 H   0  0  0  0  0  0  0  0  0  0  0  0
   43.8791   36.2796   45.0066 H   0  0  0  0  0  0  0  0  0  0  0  0
   49.5115   34.5080   37.4119 H   0  0  0  0  0  0  0  0  0  0  0  0
   49.4458   33.3432   35.2215 H   0  0  0  0  0  0  0  0  0  0  0  0
   48.9643   31.5595   33.3554 H   0  0  0  0  0  0  0  0  0  0  0  0
   47.9492   30.0225   31.6694 H   0  0  0  0  0  0  0  0  0  0  0  0
   45.4441   29.0763   32.3159 H   0  0  0  0  0  0  0  0  0  0  0  0
  1  3  1  0
  3  2  2  0
  3  5  1  0
  4  3  1  0
  5  7  1  0
  6 11  2  0
  6  7  1  0
  7  8  2  0
  8  9  1  0
 10  9  2  0
 11 10  1  0
 12 13  2  0
 12  1  1  0
 14 12  1  0
 15 14  2  0
 16 15  1  0
 17 16  2  0
 17 18  1  0
 18 14  1  0
 19 17  1  0
 20 19  2  0
 21 22  2  0
 21 20  1  0
 22 23  1  0
 23 19  1  0
  4 24  1  0
  6 25  1  0
  8 26  1  0
 10 27  1  0
 15 28  1  0
 16 29  1  0
 20 30  1  0
 21 31  1  0
 22 32  1  0
M  ISO  8  24   3  25  14  26  14  27  14  28  14  29  14  30  14  31  14
M  ISO  1  32  14
M  END
>  <minimizedAffinity>  (1) 
-5.06636047

>  <minimizedRMSD>  (1) 
0.233893082

$$$$
