
     RDKit          3D

 27 28  0  0  0  0  0  0  0  0999 V2000
   49.3920   35.4820   42.4450 O   0  0  0  0  0  0  0  0  0  0  0  0
   48.8050   34.2850   41.7520 P   0  0  1  0  0  0  0  0  0  0  0  0
   50.0570   33.2570   41.3140 O   0  0  0  0  0  0  0  0  0  0  0  0
   47.6860   33.4820   42.7930 O   0  0  0  0  0  0  0  0  0  0  0  0
   46.1380   35.3060   42.7840 C   0  0  0  0  0  0  0  0  0  0  0  0
   46.6660   34.2010   43.4240 C   0  0  0  0  0  0  0  0  0  0  0  0
   46.1550   33.8460   44.6790 C   0  0  0  0  0  0  0  0  0  0  0  0
   45.1570   34.6220   45.2020 N   0  0  0  0  0  0  0  0  0  0  0  0
   44.6720   35.6820   44.5550 C   0  0  0  0  0  0  0  0  0  0  0  0
   45.1580   36.0200   43.3610 N   0  0  0  0  0  0  0  0  0  0  0  0
   48.0210   34.7850   40.3800 O   0  0  0  0  0  0  0  0  0  0  0  0
   47.4340   34.0140   39.4380 C   0  0  0  0  0  0  0  0  0  0  0  0
   46.3140   33.5350   39.8380 O   0  0  0  0  0  0  0  0  0  0  0  0
   47.6340   33.5120   38.0640 C   0  0  0  0  0  0  0  0  0  0  0  0
   48.7720   33.7250   37.2310 C   0  0  0  0  0  0  0  0  0  0  0  0
   48.6700   33.1390   35.9950 C   0  0  0  0  0  0  0  0  0  0  0  0
   47.5990   32.4340   35.6100 C   0  0  0  0  0  0  0  0  0  0  0  0
   46.4970   32.5460   37.1560 S   0  0  0  0  0  0  0  0  0  0  0  0
   47.1620   31.7160   34.4580 C   0  0  0  0  0  0  0  0  0  0  0  0
   47.5850   32.0210   33.3140 O   0  0  0  0  0  0  0  0  0  0  0  0
   50.4915   32.9003   42.1289 H   0  0  0  0  0  0  0  0  0  0  0  0
   46.5224   35.6022   41.7969 H   0  0  0  0  0  0  0  0  0  0  0  0
   46.5428   32.9734   45.2252 H   0  0  0  0  0  0  0  0  0  0  0  0
   43.8677   36.2799   45.0084 H   0  0  0  0  0  0  0  0  0  0  0  0
   49.6502   34.3055   37.5502 H   0  0  0  0  0  0  0  0  0  0  0  0
   49.5054   33.2534   35.2886 H   0  0  0  0  0  0  0  0  0  0  0  0
   46.4478   30.8871   34.5714 H   0  0  0  0  0  0  0  0  0  0  0  0
  2  1  2  0
  2  4  1  0
  3  2  1  0
  4  6  1  0
  5 10  2  0
  5  6  1  0
  6  7  2  0
  7  8  1  0
  9  8  2  0
 10  9  1  0
 11  2  1  0
 12 13  2  0
 12 11  1  0
 14 12  1  0
 15 14  2  0
 16 15  1  0
 17 16  2  0
 17 18  1  0
 18 14  1  0
 19 17  1  0
 20 19  2  0
  3 21  1  0
  5 22  1  0
  7 23  1  0
  9 24  1  0
 15 25  1  0
 16 26  1  0
 19 27  1  0
M  ISO  7  21   3  22  14  23  14  24  14  25  14  26  14  27   6
M  END
>  <minimizedAffinity>  (1) 
-4.61396456

>  <minimizedRMSD>  (1) 
0.241158649

$$$$
