
     RDKit          3D

 34 36  0  0  0  0  0  0  0  0999 V2000
   47.4690   34.0000   39.3980 C   0  0  0  0  0  0  0  0  0  0  0  0
   46.3240   33.5260   39.7840 O   0  0  0  0  0  0  0  0  0  0  0  0
   47.6790   33.4590   38.0380 C   0  0  0  0  0  0  0  0  0  0  0  0
   48.7360   33.7960   37.1470 C   0  0  0  0  0  0  0  0  0  0  0  0
   48.6800   33.1390   35.9450 C   0  0  0  0  0  0  0  0  0  0  0  0
   47.7160   32.2580   35.6380 C   0  0  0  0  0  0  0  0  0  0  0  0
   46.6770   32.2880   37.2200 S   0  0  0  0  0  0  0  0  0  0  0  0
   47.3270   31.4100   34.5480 C   0  0  0  0  0  0  0  0  0  0  0  0
   46.0710   30.8530   34.4870 C   0  0  0  0  0  0  0  0  0  0  0  0
   45.8690   30.0580   33.3600 C   0  0  0  0  0  0  0  0  0  0  0  0
   46.8670   29.8790   32.4270 C   0  0  0  0  0  0  0  0  0  0  0  0
   48.1130   30.4630   32.5400 C   0  0  0  0  0  0  0  0  0  0  0  0
   48.3010   31.2400   33.6460 N   0  0  0  0  0  0  0  0  0  0  0  0
   48.0300   34.7790   40.3350 O   0  0  0  0  0  0  0  0  0  0  0  0
   49.3690   35.4780   42.4200 O   0  0  0  0  0  0  0  0  0  0  0  0
   48.7980   34.2730   41.7320 P   0  0  2  0  0  0  0  0  0  0  0  0
   50.0620   33.2640   41.3210 O   0  0  0  0  0  0  0  0  0  0  0  0
   47.6690   33.4700   42.7620 O   0  0  0  0  0  0  0  0  0  0  0  0
   46.1250   35.2950   42.7560 C   0  0  0  0  0  0  0  0  0  0  0  0
   46.6600   34.1850   43.4010 C   0  0  0  0  0  0  0  0  0  0  0  0
   46.1570   33.8450   44.6630 C   0  0  0  0  0  0  0  0  0  0  0  0
   45.1690   34.6180   45.1920 N   0  0  0  0  0  0  0  0  0  0  0  0
   44.6770   35.6810   44.5420 C   0  0  0  0  0  0  0  0  0  0  0  0
   45.1470   36.0220   43.3330 N   0  0  0  0  0  0  0  0  0  0  0  0
   49.5263   34.5181   37.3997 H   0  0  0  0  0  0  0  0  0  0  0  0
   49.4612   33.3436   35.1981 H   0  0  0  0  0  0  0  0  0  0  0  0
   45.3000   31.0189   35.2538 H   0  0  0  0  0  0  0  0  0  0  0  0
   44.8966   29.5653   33.2130 H   0  0  0  0  0  0  0  0  0  0  0  0
   46.6620   29.2427   31.5535 H   0  0  0  0  0  0  0  0  0  0  0  0
   48.9018   30.3120   31.7884 H   0  0  0  0  0  0  0  0  0  0  0  0
   50.4916   32.9211   42.1444 H   0  0  0  0  0  0  0  0  0  0  0  0
   46.5039   35.5829   41.7643 H   0  0  0  0  0  0  0  0  0  0  0  0
   46.5497   32.9766   45.2122 H   0  0  0  0  0  0  0  0  0  0  0  0
   43.8792   36.2805   45.0047 H   0  0  0  0  0  0  0  0  0  0  0  0
  1  2  2  0
  1 14  1  0
  3  1  1  0
  4  3  2  0
  5  4  1  0
  6  5  2  0
  6  7  1  0
  7  3  1  0
  8  6  1  0
  9  8  2  0
 10  9  1  0
 11 12  1  0
 11 10  2  0
 12 13  2  0
 13  8  1  0
 14 16  1  0
 16 15  2  0
 16 18  1  0
 17 16  1  0
 18 20  1  0
 19 24  2  0
 19 20  1  0
 20 21  2  0
 21 22  1  0
 23 22  2  0
 24 23  1  0
  4 25  1  0
  5 26  1  0
  9 27  1  0
 10 28  1  0
 11 29  1  0
 12 30  1  0
 17 31  1  0
 19 32  1  0
 21 33  1  0
 23 34  1  0
M  ISO  8  25  14  26  14  27  14  28  14  29  14  30  14  31   3  32  14
M  ISO  2  33  14  34  14
M  END
>  <minimizedAffinity>  (1) 
-5.21339464

>  <minimizedRMSD>  (1) 
0.322231084

$$$$
