
     RDKit          3D

 37 39  0  0  0  0  0  0  0  0999 V2000
   47.0350   32.6910   36.7570 C   0  0  0  0  0  0  0  0  0  0  0  0
   46.1470   31.7660   36.9550 O   0  0  0  0  0  0  0  0  0  0  0  0
   47.6750   32.3520   35.4580 C   0  0  0  0  0  0  0  0  0  0  0  0
   49.0590   32.3230   35.1940 C   0  0  0  0  0  0  0  0  0  0  0  0
   49.3710   31.9790   33.9130 C   0  0  0  0  0  0  0  0  0  0  0  0
   48.4540   31.6940   32.9870 C   0  0  0  0  0  0  0  0  0  0  0  0
   46.8620   31.9190   33.9880 S   0  0  0  0  0  0  0  0  0  0  0  0
   48.3680   31.3090   31.6070 C   0  0  0  0  0  0  0  0  0  0  0  0
   47.9160   30.0790   31.2230 C   0  0  0  0  0  0  0  0  0  0  0  0
   47.9050   29.8920   29.8450 C   0  0  0  0  0  0  0  0  0  0  0  0
   48.3180   30.8750   28.9800 C   0  0  0  0  0  0  0  0  0  0  0  0
   48.7670   32.1020   29.4240 C   0  0  0  0  0  0  0  0  0  0  0  0
   48.7750   32.2810   30.7770 N   0  0  0  0  0  0  0  0  0  0  0  0
   47.0480   33.5740   37.7540 O   0  0  0  0  0  0  0  0  0  0  0  0
   48.3480   34.9750   39.4780 O   0  0  0  0  0  0  0  0  0  0  0  0
   48.0050   33.5630   39.1120 P   0  0  2  0  0  0  0  0  0  0  0  0
   49.4180   32.7490   38.7620 O   0  0  0  0  0  0  0  0  0  0  0  0
   47.1540   32.7960   40.4100 O   0  0  0  0  0  0  0  0  0  0  0  0
   45.4200   34.2760   41.1440 C   0  0  0  0  0  0  0  0  0  0  0  0
   46.5730   33.5620   41.4270 C   0  0  0  0  0  0  0  0  0  0  0  0
   47.1160   33.6350   42.7200 C   0  0  0  0  0  0  0  0  0  0  0  0
   46.4830   34.4030   43.6360 N   0  0  0  0  0  0  0  0  0  0  0  0
   45.3650   35.0820   43.3270 C   0  0  0  0  0  0  0  0  0  0  0  0
   44.8440   35.0190   42.1020 N   0  0  0  0  0  0  0  0  0  0  0  0
   44.6620   35.9350   44.3430 C   0  0  0  0  0  0  0  0  0  0  0  0
   45.0490   37.2500   44.2550 F   0  0  0  0  0  0  0  0  0  0  0  0
   43.2850   35.8780   44.0920 F   0  0  0  0  0  0  0  0  0  0  0  0
   44.8320   35.4970   45.6230 F   0  0  0  0  0  0  0  0  0  0  0  0
   49.8192   32.5571   35.9538 H   0  0  0  0  0  0  0  0  0  0  0  0
   50.4325   31.9340   33.6281 H   0  0  0  0  0  0  0  0  0  0  0  0
   47.5909   29.3080   31.9370 H   0  0  0  0  0  0  0  0  0  0  0  0
   47.5564   28.9316   29.4375 H   0  0  0  0  0  0  0  0  0  0  0  0
   48.2901   30.6781   27.8981 H   0  0  0  0  0  0  0  0  0  0  0  0
   49.0984   32.8881   28.7296 H   0  0  0  0  0  0  0  0  0  0  0  0
   49.8673   32.4902   39.6053 H   0  0  0  0  0  0  0  0  0  0  0  0
   44.9780   34.2341   40.1376 H   0  0  0  0  0  0  0  0  0  0  0  0
   48.0309   33.0828   42.9807 H   0  0  0  0  0  0  0  0  0  0  0  0
  1  2  2  0
  1 14  1  0
  3  1  1  0
  4  3  2  0
  5  4  1  0
  6  5  2  0
  6  7  1  0
  7  3  1  0
  8  6  1  0
  9  8  2  0
 10  9  1  0
 11 12  1  0
 11 10  2  0
 12 13  2  0
 13  8  1  0
 14 16  1  0
 16 15  2  0
 16 18  1  0
 17 16  1  0
 18 20  1  0
 19 20  2  0
 19 24  1  0
 20 21  1  0
 21 22  2  0
 23 22  1  0
 23 25  1  0
 24 23  2  0
 25 28  1  0
 26 25  1  0
 27 25  1  0
  4 29  1  0
  5 30  1  0
  9 31  1  0
 10 32  1  0
 11 33  1  0
 12 34  1  0
 17 35  1  0
 19 36  1  0
 21 37  1  0
M  ISO  8  29  14  30  14  31  14  32  14  33  14  34  14  35   3  36  14
M  ISO  1  37  14
M  END
>  <minimizedAffinity>  (1) 
-6.19565487

>  <minimizedRMSD>  (1) 
2.72866178

$$$$
