
     RDKit          3D

 30 31  0  0  1  0  0  0  0  0999 V2000
   46.7380   34.7900   42.0120 N   0  0  0  0  0  0  0  0  0  0  0  0
   46.1050   34.2550   40.8310 C   0  0  0  0  0  0  0  0  0  0  0  0
   47.1050   33.6490   39.8850 C   0  0  0  0  0  0  0  0  0  0  0  0
   48.2070   34.4780   39.5790 N   0  0  0  0  0  0  0  0  0  0  0  0
   48.7070   35.2990   40.6320 C   0  0  0  0  0  0  0  0  0  0  0  0
   48.1220   35.1700   41.9710 C   0  0  2  0  0  0  0  0  0  0  0  0
   44.4890   36.1220   44.7070 C   0  0  0  0  0  0  0  0  0  0  0  0
   45.1750   36.0570   43.4810 C   0  0  0  0  0  0  0  0  0  0  0  0
   45.9990   34.9490   43.2280 C   0  0  0  0  0  0  0  0  0  0  0  0
   46.0930   33.9850   44.1930 N   0  0  0  0  0  0  0  0  0  0  0  0
   45.4060   34.0950   45.3670 C   0  0  0  0  0  0  0  0  0  0  0  0
   44.6130   35.1610   45.6120 N   0  0  0  0  0  0  0  0  0  0  0  0
   48.9670   34.2150   42.8070 C   0  0  0  0  0  0  0  0  0  0  0  0
   50.4310   34.3950   42.4780 C   0  0  0  0  0  0  0  0  0  0  0  0
   45.3859   33.4794   41.1332 H   0  0  0  0  0  0  0  0  0  0  0  0
   45.6003   35.0820   40.3101 H   0  0  0  0  0  0  0  0  0  0  0  0
   47.4885   32.7233   40.3389 H   0  0  0  0  0  0  0  0  0  0  0  0
   46.5724   33.4788   38.9377 H   0  0  0  0  0  0  0  0  0  0  0  0
   48.9770   33.8696   39.2661 H   0  0  0  0  0  0  0  0  0  0  0  0
   49.7814   35.0831   40.7271 H   0  0  0  0  0  0  0  0  0  0  0  0
   48.4373   36.3196   40.3226 H   0  0  0  0  0  0  0  0  0  0  0  0
   48.1358   36.1847   42.3955 H   0  0  0  0  0  0  0  0  0  0  0  0
   43.8391   36.9840   44.9185 H   0  0  0  0  0  0  0  0  0  0  0  0
   45.0680   36.8584   42.7352 H   0  0  0  0  0  0  0  0  0  0  0  0
   45.4993   33.3037   46.1254 H   0  0  0  0  0  0  0  0  0  0  0  0
   48.8053   34.4252   43.8745 H   0  0  0  0  0  0  0  0  0  0  0  0
   48.6713   33.1799   42.5809 H   0  0  0  0  0  0  0  0  0  0  0  0
   51.0103   34.4662   43.4104 H   0  0  0  0  0  0  0  0  0  0  0  0
   50.7838   33.5335   41.8921 H   0  0  0  0  0  0  0  0  0  0  0  0
   50.5646   35.3163   41.8921 H   0  0  0  0  0  0  0  0  0  0  0  0
  1  9  1  0
  2  1  1  0
  3  2  1  0
  4  3  1  0
  4  5  1  0
  5  6  1  0
  6  1  1  0
  6 13  1  0
  7 12  2  0
  8  7  1  0
  9  8  2  0
  9 10  1  0
 10 11  2  0
 11 12  1  0
 14 13  1  0
  2 15  1  0
  2 16  1  0
  3 17  1  0
  3 18  1  0
  4 19  1  0
  5 20  1  0
  5 21  1  0
  6 22  1  1
  7 23  1  0
  8 24  1  0
 11 25  1  0
 13 26  1  0
 13 27  1  0
 14 28  1  0
 14 29  1  0
 14 30  1  0
M  ISO  8  15  13  16  13  17  13  18  13  19   5  20  13  21  13  22  13
M  ISO  8  23  14  24  14  25  14  26   8  27   8  28   8  29   8  30   8
M  END
>  <minimizedAffinity>  (1) 
-4.8924284

>  <minimizedRMSD>  (1) 
0.252879232

$$$$
