
     RDKit          3D

 40 43  0  0  1  0  0  0  0  0999 V2000
   47.2650   31.4960   39.6430 N   0  0  0  0  0  0  0  0  0  0  0  0
   46.4260   30.5320   38.9340 C   0  0  0  0  0  0  0  0  0  0  0  0
   46.0890   30.9960   37.5390 C   0  0  0  0  0  0  0  0  0  0  0  0
   45.5360   32.3030   37.4960 N   0  0  0  0  0  0  0  0  0  0  0  0
   46.0500   33.2360   38.4140 C   0  0  0  0  0  0  0  0  0  0  0  0
   47.2810   32.8580   39.1780 C   0  0  1  0  0  0  0  0  0  0  0  0
   47.4180   33.8790   40.2320 C   0  0  0  0  0  0  0  0  0  0  0  0
   48.6050   34.5560   40.3230 C   0  0  0  0  0  0  0  0  0  0  0  0
   48.8500   35.5170   41.2800 C   0  0  0  0  0  0  0  0  0  0  0  0
   47.8760   35.8490   42.2190 C   0  0  0  0  0  0  0  0  0  0  0  0
   46.6690   35.1880   42.1600 C   0  0  0  0  0  0  0  0  0  0  0  0
   45.6650   35.4680   43.0600 C   0  0  0  0  0  0  0  0  0  0  0  0
   44.4420   34.8270   43.0350 C   0  0  0  0  0  0  0  0  0  0  0  0
   44.2630   33.8640   42.0360 C   0  0  0  0  0  0  0  0  0  0  0  0
   45.2760   33.6030   41.1530 C   0  0  0  0  0  0  0  0  0  0  0  0
   46.4930   34.2390   41.1770 C   0  0  0  0  0  0  0  0  0  0  0  0
   48.4090   30.3740   43.0180 C   0  0  0  0  0  0  0  0  0  0  0  0
   47.5360   30.7650   41.9950 C   0  0  0  0  0  0  0  0  0  0  0  0
   48.0430   31.0850   40.7430 C   0  0  0  0  0  0  0  0  0  0  0  0
   49.3870   30.9910   40.5970 N   0  0  0  0  0  0  0  0  0  0  0  0
   50.2330   30.6120   41.5850 C   0  0  0  0  0  0  0  0  0  0  0  0
   49.7330   30.3040   42.8010 N   0  0  0  0  0  0  0  0  0  0  0  0
   46.9623   29.5738   38.8699 H   0  0  0  0  0  0  0  0  0  0  0  0
   45.4849   30.4241   39.4932 H   0  0  0  0  0  0  0  0  0  0  0  0
   47.0096   30.9873   36.9370 H   0  0  0  0  0  0  0  0  0  0  0  0
   45.3265   30.3084   37.1442 H   0  0  0  0  0  0  0  0  0  0  0  0
   45.6928   32.6774   36.5494 H   0  0  0  0  0  0  0  0  0  0  0  0
   46.2803   34.1545   37.8542 H   0  0  0  0  0  0  0  0  0  0  0  0
   45.2666   33.3313   39.1803 H   0  0  0  0  0  0  0  0  0  0  0  0
   48.1766   32.8593   38.5393 H   0  0  0  0  0  0  0  0  0  0  0  0
   49.3994   34.3220   39.5990 H   0  0  0  0  0  0  0  0  0  0  0  0
   49.8244   36.0270   41.3026 H   0  0  0  0  0  0  0  0  0  0  0  0
   48.0651   36.6159   42.9845 H   0  0  0  0  0  0  0  0  0  0  0  0
   45.8444   36.2330   43.8298 H   0  0  0  0  0  0  0  0  0  0  0  0
   43.6505   35.0612   43.7621 H   0  0  0  0  0  0  0  0  0  0  0  0
   43.3110   33.3181   41.9603 H   0  0  0  0  0  0  0  0  0  0  0  0
   45.1054   32.8397   40.3795 H   0  0  0  0  0  0  0  0  0  0  0  0
   48.0062   30.1215   44.0100 H   0  0  0  0  0  0  0  0  0  0  0  0
   46.4535   30.8183   42.1828 H   0  0  0  0  0  0  0  0  0  0  0  0
   51.3156   30.5558   41.3986 H   0  0  0  0  0  0  0  0  0  0  0  0
  1 19  1  0
  2  1  1  0
  3  2  1  0
  4  3  1  0
  4  5  1  0
  5  6  1  0
  6  1  1  0
  6  7  1  0
  7  8  2  0
  7 16  1  0
  8  9  1  0
  9 10  2  0
 11 10  1  0
 11 12  2  0
 13 12  1  0
 14 13  2  0
 15 16  2  0
 15 14  1  0
 16 11  1  0
 18 17  2  0
 19 18  1  0
 20 19  2  0
 20 21  1  0
 21 22  2  0
 22 17  1  0
  2 23  1  0
  2 24  1  0
  3 25  1  0
  3 26  1  0
  4 27  1  0
  5 28  1  0
  5 29  1  0
  6 30  1  6
  8 31  1  0
  9 32  1  0
 10 33  1  0
 12 34  1  0
 13 35  1  0
 14 36  1  0
 15 37  1  0
 17 38  1  0
 18 39  1  0
 21 40  1  0
M  ISO  8  23  13  24  13  25  13  26  13  27   5  28  13  29  13  30  13
M  ISO  8  31  14  32  14  33  14  34  14  35  14  36  14  37  14  38  14
M  ISO  2  39  14  40  14
M  END
>  <minimizedAffinity>  (1) 
-4.25177813

>  <minimizedRMSD>  (1) 
4.95273066

$$$$
