
     RDKit          3D

 23 24  0  0  0  0  0  0  0  0999 V2000
   45.4780   35.0760   43.9850 C   0  0  0  0  0  0  0  0  0  0  0  0
   46.5230   34.2540   43.5730 C   0  0  0  0  0  0  0  0  0  0  0  0
   46.9590   33.2630   44.4880 C   0  0  0  0  0  0  0  0  0  0  0  0
   46.3440   33.1750   45.6880 N   0  0  0  0  0  0  0  0  0  0  0  0
   45.3200   34.0140   46.0390 C   0  0  0  0  0  0  0  0  0  0  0  0
   44.8880   34.9660   45.1830 N   0  0  0  0  0  0  0  0  0  0  0  0
   45.1140   32.5920   41.6060 Cl  0  0  0  0  0  0  0  0  0  0  0  0
   46.4780   33.6630   41.2880 C   0  0  0  0  0  0  0  0  0  0  0  0
   47.1110   34.4320   42.2640 C   0  0  0  0  0  0  0  0  0  0  0  0
   48.1750   35.2430   41.9220 C   0  0  0  0  0  0  0  0  0  0  0  0
   48.6170   35.2970   40.6110 C   0  0  0  0  0  0  0  0  0  0  0  0
   47.9630   34.5220   39.6760 C   0  0  0  0  0  0  0  0  0  0  0  0
   48.5510   34.6150   38.0150 Cl  0  0  0  0  0  0  0  0  0  0  0  0
   46.9010   33.6980   39.9650 C   0  0  0  0  0  0  0  0  0  0  0  0
   45.0220   36.1270   43.0050 C   0  0  0  0  0  0  0  0  0  0  0  0
   47.7807   32.5800   44.2267 H   0  0  0  0  0  0  0  0  0  0  0  0
   44.8453   33.9120   47.0260 H   0  0  0  0  0  0  0  0  0  0  0  0
   48.6731   35.8482   42.6938 H   0  0  0  0  0  0  0  0  0  0  0  0
   49.4635   35.9381   40.3240 H   0  0  0  0  0  0  0  0  0  0  0  0
   46.4100   33.0956   39.1865 H   0  0  0  0  0  0  0  0  0  0  0  0
   44.6428   37.0010   43.5548 H   0  0  0  0  0  0  0  0  0  0  0  0
   45.8692   36.4309   42.3726 H   0  0  0  0  0  0  0  0  0  0  0  0
   44.2213   35.7159   42.3726 H   0  0  0  0  0  0  0  0  0  0  0  0
  1  6  2  0
  2  1  1  0
  2  3  2  0
  3  4  1  0
  4  5  2  0
  6  5  1  0
  8  7  1  0
  8  9  2  0
  9  2  1  0
 10  9  1  0
 11 10  2  0
 12 14  2  0
 12 11  1  0
 13 12  1  0
 14  8  1  0
 15  1  1  0
  3 16  1  0
  5 17  1  0
 10 18  1  0
 11 19  1  0
 14 20  1  0
 15 21  1  0
 15 22  1  0
 15 23  1  0
M  ISO  8  16  14  17  14  18  14  19  14  20  14  21   8  22   8  23   8
M  END
>  <minimizedAffinity>  (1) 
-5.22428322

>  <minimizedRMSD>  (1) 
0.505568266

$$$$
