
     RDKit          3D

 23 24  0  0  0  0  0  0  0  0999 V2000
   45.3950   35.0900   44.0000 C   0  0  0  0  0  0  0  0  0  0  0  0
   46.4350   34.2730   43.5620 C   0  0  0  0  0  0  0  0  0  0  0  0
   46.9270   33.2930   44.4300 C   0  0  0  0  0  0  0  0  0  0  0  0
   46.3690   33.1860   45.6510 N   0  0  0  0  0  0  0  0  0  0  0  0
   45.3460   34.0020   46.0530 C   0  0  0  0  0  0  0  0  0  0  0  0
   44.8600   34.9600   45.2160 N   0  0  0  0  0  0  0  0  0  0  0  0
   45.0730   32.6600   41.2730 Br  0  0  0  0  0  0  0  0  0  0  0  0
   46.5980   33.7890   41.0850 C   0  0  0  0  0  0  0  0  0  0  0  0
   47.0300   34.4040   42.2350 C   0  0  0  0  0  0  0  0  0  0  0  0
   48.1340   35.2540   42.2350 C   0  0  0  0  0  0  0  0  0  0  0  0
   48.8130   35.4810   41.0420 C   0  0  0  0  0  0  0  0  0  0  0  0
   48.3730   34.8650   39.9140 C   0  0  0  0  0  0  0  0  0  0  0  0
   47.2800   34.0160   39.8860 C   0  0  0  0  0  0  0  0  0  0  0  0
   44.8910   36.1270   43.0500 C   0  0  0  0  0  0  0  0  0  0  0  0
   47.7476   32.6276   44.1237 H   0  0  0  0  0  0  0  0  0  0  0  0
   44.9141   33.8832   47.0577 H   0  0  0  0  0  0  0  0  0  0  0  0
   48.4643   35.7390   43.1655 H   0  0  0  0  0  0  0  0  0  0  0  0
   49.6887   36.1460   41.0128 H   0  0  0  0  0  0  0  0  0  0  0  0
   48.9134   35.0505   38.9740 H   0  0  0  0  0  0  0  0  0  0  0  0
   46.9584   33.5354   38.9503 H   0  0  0  0  0  0  0  0  0  0  0  0
   44.4790   36.9747   43.6172 H   0  0  0  0  0  0  0  0  0  0  0  0
   45.7192   36.4775   42.4166 H   0  0  0  0  0  0  0  0  0  0  0  0
   44.1036   35.6923   42.4166 H   0  0  0  0  0  0  0  0  0  0  0  0
  1  6  2  0
  2  1  1  0
  2  3  2  0
  3  4  1  0
  4  5  2  0
  6  5  1  0
  8  7  1  0
  8  9  2  0
  9 10  1  0
  9  2  1  0
 11 10  2  0
 12 11  1  0
 13 12  2  0
 13  8  1  0
 14  1  1  0
  3 15  1  0
  5 16  1  0
 10 17  1  0
 11 18  1  0
 12 19  1  0
 13 20  1  0
 14 21  1  0
 14 22  1  0
 14 23  1  0
M  ISO  8  15  14  16  14  17  14  18  14  19  14  20  14  21   8  22   8
M  ISO  1  23   8
M  END
>  <minimizedAffinity>  (1) 
-5.0182476

>  <minimizedRMSD>  (1) 
0.495460987

$$$$
