
     RDKit          3D

 23 24  0  0  0  0  0  0  0  0999 V2000
   46.3540   34.1350   43.9590 C   0  0  0  0  0  0  0  0  0  0  0  0
   45.6940   34.1260   45.2010 C   0  0  0  0  0  0  0  0  0  0  0  0
   44.7330   35.1300   45.4170 C   0  0  0  0  0  0  0  0  0  0  0  0
   44.4960   36.0360   44.4340 N   0  0  0  0  0  0  0  0  0  0  0  0
   45.1580   36.0030   43.2540 C   0  0  0  0  0  0  0  0  0  0  0  0
   46.0820   35.0550   43.0210 N   0  0  0  0  0  0  0  0  0  0  0  0
   44.3070   34.0920   47.5550 F   0  0  0  0  0  0  0  0  0  0  0  0
   45.2890   33.1570   47.3290 C   0  0  0  0  0  0  0  0  0  0  0  0
   46.0430   33.1010   46.1640 C   0  0  0  0  0  0  0  0  0  0  0  0
   47.0170   32.1230   46.0180 C   0  0  0  0  0  0  0  0  0  0  0  0
   47.2350   31.2050   47.0320 C   0  0  0  0  0  0  0  0  0  0  0  0
   46.4530   31.2990   48.1880 C   0  0  0  0  0  0  0  0  0  0  0  0
   45.4780   32.2580   48.3630 C   0  0  0  0  0  0  0  0  0  0  0  0
   47.3860   33.0650   43.7170 C   0  0  0  0  0  0  0  0  0  0  0  0
   44.1819   35.1804   46.3677 H   0  0  0  0  0  0  0  0  0  0  0  0
   44.9389   36.7554   42.4821 H   0  0  0  0  0  0  0  0  0  0  0  0
   47.6161   32.0769   45.0966 H   0  0  0  0  0  0  0  0  0  0  0  0
   48.0022   30.4233   46.9310 H   0  0  0  0  0  0  0  0  0  0  0  0
   46.6242   30.5729   48.9963 H   0  0  0  0  0  0  0  0  0  0  0  0
   44.8775   32.3060   49.2834 H   0  0  0  0  0  0  0  0  0  0  0  0
   47.7529   32.6846   44.6817 H   0  0  0  0  0  0  0  0  0  0  0  0
   46.9329   32.2410   43.1463 H   0  0  0  0  0  0  0  0  0  0  0  0
   48.2259   33.4880   43.1463 H   0  0  0  0  0  0  0  0  0  0  0  0
  1  2  2  0
  2  3  1  0
  2  9  1  0
  4  3  2  0
  5  4  1  0
  6  5  2  0
  6  1  1  0
  8  7  1  0
  8 13  2  0
  9  8  1  0
 10  9  2  0
 10 11  1  0
 11 12  2  0
 12 13  1  0
 14  1  1  0
  3 15  1  0
  5 16  1  0
 10 17  1  0
 11 18  1  0
 12 19  1  0
 13 20  1  0
 14 21  1  0
 14 22  1  0
 14 23  1  0
M  ISO  8  15  14  16  14  17  14  18  14  19  14  20  14  21   8  22   8
M  ISO  1  23   8
M  END
>  <minimizedAffinity>  (1) 
-5.01124001

>  <minimizedRMSD>  (1) 
5.54561329

$$$$
