
     RDKit          3D

 28 29  0  0  0  0  0  0  0  0999 V2000
   45.6010   35.0520   43.9740 C   0  0  0  0  0  0  0  0  0  0  0  0
   46.6230   34.1170   43.8210 C   0  0  0  0  0  0  0  0  0  0  0  0
   46.8280   33.1890   44.8690 C   0  0  0  0  0  0  0  0  0  0  0  0
   46.0240   33.2610   45.9590 N   0  0  0  0  0  0  0  0  0  0  0  0
   45.0390   34.1920   46.0600 C   0  0  0  0  0  0  0  0  0  0  0  0
   44.8330   35.0900   45.0580 N   0  0  0  0  0  0  0  0  0  0  0  0
   47.4890   34.0110   42.6920 N   0  0  0  0  0  0  0  0  0  0  0  0
   47.0140   34.0180   41.3250 C   0  0  0  0  0  0  0  0  0  0  0  0
   48.0580   34.6500   40.4420 C   0  0  0  0  0  0  0  0  0  0  0  0
   48.8820   35.6940   41.1560 C   0  0  0  0  0  0  0  0  0  0  0  0
   49.5750   35.1930   42.3770 C   0  0  0  0  0  0  0  0  0  0  0  0
   48.9340   33.8830   42.7840 C   0  0  0  0  0  0  0  0  0  0  0  0
   45.4100   36.0190   42.8480 C   0  0  0  0  0  0  0  0  0  0  0  0
   47.6196   32.4282   44.8016 H   0  0  0  0  0  0  0  0  0  0  0  0
   44.4039   34.2200   46.9577 H   0  0  0  0  0  0  0  0  0  0  0  0
   46.8285   32.9853   40.9945 H   0  0  0  0  0  0  0  0  0  0  0  0
   46.0784   34.5930   41.2614 H   0  0  0  0  0  0  0  0  0  0  0  0
   47.5534   35.1256   39.5881 H   0  0  0  0  0  0  0  0  0  0  0  0
   48.7442   33.8522   40.1216 H   0  0  0  0  0  0  0  0  0  0  0  0
   49.6432   36.0706   40.4569 H   0  0  0  0  0  0  0  0  0  0  0  0
   48.1838   36.4771   41.4867 H   0  0  0  0  0  0  0  0  0  0  0  0
   50.6416   35.0336   42.1603 H   0  0  0  0  0  0  0  0  0  0  0  0
   49.4863   35.9273   43.1912 H   0  0  0  0  0  0  0  0  0  0  0  0
   49.2170   33.6404   43.8189 H   0  0  0  0  0  0  0  0  0  0  0  0
   49.2778   33.0793   42.1163 H   0  0  0  0  0  0  0  0  0  0  0  0
   45.2120   37.0215   43.2552 H   0  0  0  0  0  0  0  0  0  0  0  0
   46.3199   36.0472   42.2306 H   0  0  0  0  0  0  0  0  0  0  0  0
   44.5577   35.6991   42.2306 H   0  0  0  0  0  0  0  0  0  0  0  0
  1  6  2  0
  2  1  1  0
  2  3  2  0
  3  4  1  0
  4  5  2  0
  6  5  1  0
  7 12  1  0
  7  2  1  0
  8  7  1  0
  9 10  1  0
  9  8  1  0
 10 11  1  0
 11 12  1  0
 13  1  1  0
  3 14  1  0
  5 15  1  0
  8 16  1  0
  8 17  1  0
  9 18  1  0
  9 19  1  0
 10 20  1  0
 10 21  1  0
 11 22  1  0
 11 23  1  0
 12 24  1  0
 12 25  1  0
 13 26  1  0
 13 27  1  0
 13 28  1  0
M  ISO  8  14  14  15  14  16  13  17  13  18  13  19  13  20  13  21  13
M  ISO  7  22  13  23  13  24  13  25  13  26   8  27   8  28   8
M  END
>  <minimizedAffinity>  (1) 
-4.81644583

>  <minimizedRMSD>  (1) 
0.751418114

$$$$
