
     RDKit          3D

 19 19  0  0  0  0  0  0  0  0999 V2000
   45.6590   35.0180   43.7690 C   0  0  0  0  0  0  0  0  0  0  0  0
   46.7760   34.3560   43.2590 C   0  0  0  0  0  0  0  0  0  0  0  0
   47.3210   33.3090   44.0130 C   0  0  0  0  0  0  0  0  0  0  0  0
   46.7420   32.9860   45.1990 N   0  0  0  0  0  0  0  0  0  0  0  0
   45.6530   33.6580   45.6550 C   0  0  0  0  0  0  0  0  0  0  0  0
   45.1120   34.6800   44.9350 N   0  0  0  0  0  0  0  0  0  0  0  0
   45.0730   36.1370   42.9720 C   0  0  0  0  0  0  0  0  0  0  0  0
   47.2830   34.7620   42.0540 O   0  0  0  0  0  0  0  0  0  0  0  0
   49.8290   35.2810   42.6980 O   0  0  0  0  0  0  0  0  0  0  0  0
   48.9100   34.8300   41.6020 P   0  0  0  0  0  0  0  0  0  0  0  0
   49.0480   35.9400   40.3090 O   0  0  0  0  0  0  0  0  0  0  0  0
   49.4080   33.2970   41.0870 O   0  0  0  0  0  0  0  0  0  0  0  0
   48.2019   32.7582   43.6515 H   0  0  0  0  0  0  0  0  0  0  0  0
   45.2026   33.3734   46.6174 H   0  0  0  0  0  0  0  0  0  0  0  0
   44.6724   36.9020   43.6534 H   0  0  0  0  0  0  0  0  0  0  0  0
   45.8532   36.5832   42.3378 H   0  0  0  0  0  0  0  0  0  0  0  0
   44.2619   35.7499   42.3378 H   0  0  0  0  0  0  0  0  0  0  0  0
   49.1617   36.8548   40.6701 H   0  0  0  0  0  0  0  0  0  0  0  0
   49.5929   32.7279   41.8757 H   0  0  0  0  0  0  0  0  0  0  0  0
  1  6  2  0
  2  1  1  0
  2  3  2  0
  3  4  1  0
  4  5  2  0
  6  5  1  0
  7  1  1  0
  8  2  1  0
 10  8  1  0
 10  9  2  0
 11 10  1  0
 12 10  1  0
  3 13  1  0
  5 14  1  0
  7 15  1  0
  7 16  1  0
  7 17  1  0
 11 18  1  0
 12 19  1  0
M  ISO  7  13  14  14  14  15   8  16   8  17   8  18   3  19   3
M  END
>  <minimizedAffinity>  (1) 
-4.23914099

>  <minimizedRMSD>  (1) 
1.27821887

$$$$
