
     RDKit          3D

 14 14  0  0  0  0  0  0  0  0999 V2000
   45.4100   35.2000   43.8720 C   0  0  0  0  0  0  0  0  0  0  0  0
   46.5150   34.4960   43.3440 C   0  0  0  0  0  0  0  0  0  0  0  0
   47.0850   33.4740   44.1110 C   0  0  0  0  0  0  0  0  0  0  0  0
   46.5370   33.2180   45.3240 N   0  0  0  0  0  0  0  0  0  0  0  0
   45.4800   33.9040   45.8100 C   0  0  0  0  0  0  0  0  0  0  0  0
   44.9150   34.8990   45.0790 N   0  0  0  0  0  0  0  0  0  0  0  0
   44.8180   36.2850   43.0380 C   0  0  0  0  0  0  0  0  0  0  0  0
   47.0480   34.7880   42.0950 O   0  0  0  0  0  0  0  0  0  0  0  0
   47.9472   32.8987   43.7427 H   0  0  0  0  0  0  0  0  0  0  0  0
   45.0751   33.6556   46.8022 H   0  0  0  0  0  0  0  0  0  0  0  0
   44.3946   37.0610   43.6926 H   0  0  0  0  0  0  0  0  0  0  0  0
   45.5998   36.7274   42.4031 H   0  0  0  0  0  0  0  0  0  0  0  0
   44.0229   35.8670   42.4031 H   0  0  0  0  0  0  0  0  0  0  0  0
   47.8233   34.2745   41.7553 H   0  0  0  0  0  0  0  0  0  0  0  0
  1  6  2  0
  2  1  1  0
  2  3  2  0
  3  4  1  0
  4  5  2  0
  6  5  1  0
  7  1  1  0
  8  2  1  0
  3  9  1  0
  5 10  1  0
  7 11  1  0
  7 12  1  0
  7 13  1  0
  8 14  1  0
M  ISO  6   9  14  10  14  11   8  12   8  13   8  14   3
M  END
>  <minimizedAffinity>  (1) 
-2.88250399

>  <minimizedRMSD>  (1) 
0.241104677

$$$$
