
     RDKit          3D

 27 28  0  0  1  0  0  0  0  0999 V2000
   48.4530   34.9210   42.1180 C   0  0  2  0  0  0  0  0  0  0  0  0
   47.0060   34.4600   42.1080 C   0  0  1  0  0  0  0  0  0  0  0  0
   46.9190   33.3590   41.3110 O   0  0  0  0  0  0  0  0  0  0  0  0
   48.1720   32.8630   41.0570 C   0  0  0  0  0  0  0  0  0  0  0  0
   49.0380   34.1000   40.9660 C   0  0  1  0  0  0  0  0  0  0  0  0
   45.4200   35.0390   43.9860 C   0  0  0  0  0  0  0  0  0  0  0  0
   46.4640   34.2620   43.4910 C   0  0  0  0  0  0  0  0  0  0  0  0
   46.9820   33.2710   44.3240 C   0  0  0  0  0  0  0  0  0  0  0  0
   46.4510   33.1060   45.5750 N   0  0  0  0  0  0  0  0  0  0  0  0
   45.4300   33.8970   46.0050 C   0  0  0  0  0  0  0  0  0  0  0  0
   44.9180   34.8500   45.2260 N   0  0  0  0  0  0  0  0  0  0  0  0
   44.8670   36.1100   43.0870 C   0  0  0  0  0  0  0  0  0  0  0  0
   43.5830   35.3820   42.0780 S   0  0  0  0  0  0  0  0  0  0  0  0
   49.1410   34.6590   43.2710 O   0  0  0  0  0  0  0  0  0  0  0  0
   48.7750   34.6870   39.7420 O   0  0  0  0  0  0  0  0  0  0  0  0
   48.5248   36.0151   42.0292 H   0  0  0  0  0  0  0  0  0  0  0  0
   46.3585   35.2423   41.6852 H   0  0  0  0  0  0  0  0  0  0  0  0
   48.5078   32.2088   41.8751 H   0  0  0  0  0  0  0  0  0  0  0  0
   48.2098   32.2492   40.1450 H   0  0  0  0  0  0  0  0  0  0  0  0
   50.1274   33.9638   41.0350 H   0  0  0  0  0  0  0  0  0  0  0  0
   47.8070   32.6298   43.9802 H   0  0  0  0  0  0  0  0  0  0  0  0
   45.0196   33.7470   47.0145 H   0  0  0  0  0  0  0  0  0  0  0  0
   44.4466   36.9255   43.6938 H   0  0  0  0  0  0  0  0  0  0  0  0
   45.6641   36.5214   42.4502 H   0  0  0  0  0  0  0  0  0  0  0  0
   42.6210   34.8365   42.8866 H   0  0  0  0  0  0  0  0  0  0  0  0
   48.5718   34.8758   44.0514 H   0  0  0  0  0  0  0  0  0  0  0  0
   48.3744   35.5811   39.8841 H   0  0  0  0  0  0  0  0  0  0  0  0
  1 14  1  0
  2  1  1  0
  2  7  1  0
  3  2  1  0
  4  3  1  0
  5  4  1  0
  5  1  1  0
  6 11  2  0
  7  6  1  0
  7  8  2  0
  8  9  1  0
  9 10  2  0
 11 10  1  0
 12  6  1  0
 13 12  1  0
 15  5  1  0
  1 16  1  6
  2 17  1  6
  4 18  1  0
  4 19  1  0
  5 20  1  1
  8 21  1  0
 10 22  1  0
 12 23  1  0
 12 24  1  0
 13 25  1  0
 14 26  1  0
 15 27  1  0
M  ISO  8  16  13  17  13  18  13  19  13  20  13  21  14  22  14  23   8
M  ISO  4  24   8  25  11  26   3  27   3
M  END
>  <minimizedAffinity>  (1) 
-4.47548103

>  <minimizedRMSD>  (1) 
0.253751606

$$$$
