
     RDKit          3D

 52 55  0  0  1  0  0  0  0  0999 V2000
   46.1780   34.4410   43.4440 C   0  0  0  0  0  0  0  0  0  0  0  0
   47.1280   33.4350   43.4900 C   0  0  0  0  0  0  0  0  0  0  0  0
   47.2210   32.7080   44.6930 C   0  0  0  0  0  0  0  0  0  0  0  0
   46.3980   33.0190   45.7240 N   0  0  0  0  0  0  0  0  0  0  0  0
   45.4950   34.0070   45.6220 C   0  0  0  0  0  0  0  0  0  0  0  0
   45.3960   34.6980   44.5000 N   0  0  0  0  0  0  0  0  0  0  0  0
   49.2120   34.0110   42.2460 C   0  0  2  0  0  0  0  0  0  0  0  0
   47.9900   33.0530   42.3360 C   0  0  1  0  0  0  0  0  0  0  0  0
   48.4240   31.7870   42.3110 O   0  0  0  0  0  0  0  0  0  0  0  0
   49.7850   31.7420   42.5260 C   0  0  0  0  0  0  0  0  0  0  0  0
   50.2890   32.9790   41.8400 C   0  0  1  0  0  0  0  0  0  0  0  0
   49.5420   34.6260   43.3820 O   0  0  0  0  0  0  0  0  0  0  0  0
   50.2620   32.7270   40.4860 O   0  0  0  0  0  0  0  0  0  0  0  0
   46.0770   35.2300   42.1880 C   0  0  0  0  0  0  0  0  0  0  0  0
   45.9280   33.2560   40.1070 F   0  0  0  0  0  0  0  0  0  0  0  0
   44.8580   33.9730   40.4270 C   0  0  0  0  0  0  0  0  0  0  0  0
   44.8670   34.9320   41.4090 C   0  0  0  0  0  0  0  0  0  0  0  0
   43.7190   35.6380   41.6790 C   0  0  0  0  0  0  0  0  0  0  0  0
   42.5900   35.3440   40.9380 C   0  0  0  0  0  0  0  0  0  0  0  0
   42.5180   34.3980   39.9460 C   0  0  0  0  0  0  0  0  0  0  0  0
   43.6980   33.6970   39.6920 C   0  0  0  0  0  0  0  0  0  0  0  0
   43.6990   32.6610   38.6390 C   0  0  0  0  0  0  0  0  0  0  0  0
   44.5450   33.0440   37.4530 C   0  0  0  0  0  0  0  0  0  0  0  0
   44.7920   31.8130   36.6270 C   0  0  0  0  0  0  0  0  0  0  0  0
   44.0390   30.6260   37.1560 C   0  0  0  0  0  0  0  0  0  0  0  0
   42.5990   30.8720   37.4520 C   0  0  0  0  0  0  0  0  0  0  0  0
   42.3710   32.2390   38.1130 C   0  0  0  0  0  0  0  0  0  0  0  0
   47.9551   31.8951   44.7947 H   0  0  0  0  0  0  0  0  0  0  0  0
   44.8376   34.2414   46.4722 H   0  0  0  0  0  0  0  0  0  0  0  0
   49.0472   34.8656   41.5733 H   0  0  0  0  0  0  0  0  0  0  0  0
   47.3259   33.1449   41.4639 H   0  0  0  0  0  0  0  0  0  0  0  0
   50.0143   31.7677   43.6015 H   0  0  0  0  0  0  0  0  0  0  0  0
   50.2490   30.8208   42.1439 H   0  0  0  0  0  0  0  0  0  0  0  0
   51.3074   33.3073   42.0951 H   0  0  0  0  0  0  0  0  0  0  0  0
   49.2477   34.0775   44.1518 H   0  0  0  0  0  0  0  0  0  0  0  0
   50.1578   31.7544   40.3334 H   0  0  0  0  0  0  0  0  0  0  0  0
   46.0708   36.2991   42.4470 H   0  0  0  0  0  0  0  0  0  0  0  0
   46.9410   34.9594   41.5633 H   0  0  0  0  0  0  0  0  0  0  0  0
   43.6995   36.4124   42.4600 H   0  0  0  0  0  0  0  0  0  0  0  0
   41.6759   35.9138   41.1611 H   0  0  0  0  0  0  0  0  0  0  0  0
   41.5903   34.2048   39.3873 H   0  0  0  0  0  0  0  0  0  0  0  0
   44.1206   31.8038   39.1843 H   0  0  0  0  0  0  0  0  0  0  0  0
   44.0178   33.7969   36.8487 H   0  0  0  0  0  0  0  0  0  0  0  0
   45.5012   33.4683   37.7930 H   0  0  0  0  0  0  0  0  0  0  0  0
   45.8683   31.5861   36.6391 H   0  0  0  0  0  0  0  0  0  0  0  0
   44.4414   32.0120   35.6035 H   0  0  0  0  0  0  0  0  0  0  0  0
   44.1007   29.8221   36.4077 H   0  0  0  0  0  0  0  0  0  0  0  0
   44.5095   30.3675   38.1161 H   0  0  0  0  0  0  0  0  0  0  0  0
   42.0318   30.8342   36.5103 H   0  0  0  0  0  0  0  0  0  0  0  0
   42.2597   30.0955   38.1534 H   0  0  0  0  0  0  0  0  0  0  0  0
   42.0032   32.9656   37.3736 H   0  0  0  0  0  0  0  0  0  0  0  0
   41.6179   32.1818   38.9128 H   0  0  0  0  0  0  0  0  0  0  0  0
  1  2  1  0
  1  6  2  0
  2  3  2  0
  3  4  1  0
  5  4  2  0
  6  5  1  0
  7  8  1  0
  7 12  1  0
  8  2  1  0
  9  8  1  0
  9 10  1  0
 11  7  1  0
 11 10  1  0
 13 11  1  0
 14  1  1  0
 15 16  1  0
 16 17  2  0
 17 18  1  0
 17 14  1  0
 19 18  2  0
 20 19  1  0
 21 20  2  0
 21 16  1  0
 22 21  1  0
 23 22  1  0
 24 25  1  0
 24 23  1  0
 25 26  1  0
 26 27  1  0
 27 22  1  0
  3 28  1  0
  5 29  1  0
  7 30  1  6
  8 31  1  6
 10 32  1  0
 10 33  1  0
 11 34  1  1
 12 35  1  0
 13 36  1  0
 14 37  1  0
 14 38  1  0
 18 39  1  0
 19 40  1  0
 20 41  1  0
 22 42  1  0
 23 43  1  0
 23 44  1  0
 24 45  1  0
 24 46  1  0
 25 47  1  0
 25 48  1  0
 26 49  1  0
 26 50  1  0
 27 51  1  0
 27 52  1  0
M  ISO  8  28  14  29  14  30  13  31  13  32  13  33  13  34  13  35   3
M  ISO  8  36   3  37   8  38   8  39  14  40  14  41  14  42  13  43  13
M  ISO  8  44  13  45  13  46  13  47  13  48  13  49  13  50  13  51  13
M  ISO  1  52  13
M  END
>  <minimizedAffinity>  (1) 
-6.15674734

>  <minimizedRMSD>  (1) 
0.503768504

$$$$
