
     RDKit          3D

 46 49  0  0  1  0  0  0  0  0999 V2000
   45.6520   34.3590   43.3680 C   0  0  0  0  0  0  0  0  0  0  0  0
   46.7650   33.5420   43.4830 C   0  0  0  0  0  0  0  0  0  0  0  0
   47.0810   33.0850   44.7770 C   0  0  0  0  0  0  0  0  0  0  0  0
   46.3010   33.4570   45.8230 N   0  0  0  0  0  0  0  0  0  0  0  0
   45.2340   34.2510   45.6520 C   0  0  0  0  0  0  0  0  0  0  0  0
   44.9260   34.6850   44.4450 N   0  0  0  0  0  0  0  0  0  0  0  0
   48.8100   34.0280   42.1410 C   0  0  2  0  0  0  0  0  0  0  0  0
   47.5860   33.0890   42.3250 C   0  0  1  0  0  0  0  0  0  0  0  0
   48.0110   31.8200   42.3620 O   0  0  0  0  0  0  0  0  0  0  0  0
   49.3730   31.7670   42.5220 C   0  0  0  0  0  0  0  0  0  0  0  0
   49.8670   32.9630   41.7610 C   0  0  1  0  0  0  0  0  0  0  0  0
   49.1870   34.6960   43.2350 O   0  0  0  0  0  0  0  0  0  0  0  0
   49.7930   32.6380   40.4250 O   0  0  0  0  0  0  0  0  0  0  0  0
   45.3140   34.8610   42.0090 C   0  0  0  0  0  0  0  0  0  0  0  0
   44.0380   32.3100   41.6730 F   0  0  0  0  0  0  0  0  0  0  0  0
   43.3470   33.4300   41.5110 C   0  0  0  0  0  0  0  0  0  0  0  0
   43.8890   34.6810   41.6680 C   0  0  0  0  0  0  0  0  0  0  0  0
   43.1020   35.8070   41.5070 C   0  0  0  0  0  0  0  0  0  0  0  0
   41.7760   35.6010   41.1880 C   0  0  0  0  0  0  0  0  0  0  0  0
   41.1650   34.3680   41.0150 C   0  0  0  0  0  0  0  0  0  0  0  0
   41.9890   33.2500   41.1850 C   0  0  0  0  0  0  0  0  0  0  0  0
   42.2060   32.0360   38.3020 Br  0  0  0  0  0  0  0  0  0  0  0  0
   41.4170   31.2160   39.8300 C   0  0  0  0  0  0  0  0  0  0  0  0
   41.4190   31.9160   41.0190 C   0  0  0  0  0  0  0  0  0  0  0  0
   40.8550   31.3530   42.1470 C   0  0  0  0  0  0  0  0  0  0  0  0
   40.2970   30.1060   42.0890 C   0  0  0  0  0  0  0  0  0  0  0  0
   40.2720   29.3640   40.9110 C   0  0  0  0  0  0  0  0  0  0  0  0
   40.8430   29.9570   39.8060 C   0  0  0  0  0  0  0  0  0  0  0  0
   47.9519   32.4327   44.9382 H   0  0  0  0  0  0  0  0  0  0  0  0
   44.6172   34.5396   46.5159 H   0  0  0  0  0  0  0  0  0  0  0  0
   48.6273   34.8452   41.4277 H   0  0  0  0  0  0  0  0  0  0  0  0
   46.8956   33.1382   41.4701 H   0  0  0  0  0  0  0  0  0  0  0  0
   49.6462   31.8382   43.5852 H   0  0  0  0  0  0  0  0  0  0  0  0
   49.8083   30.8230   42.1623 H   0  0  0  0  0  0  0  0  0  0  0  0
   50.8944   33.2953   41.9710 H   0  0  0  0  0  0  0  0  0  0  0  0
   48.9045   34.1954   44.0410 H   0  0  0  0  0  0  0  0  0  0  0  0
   49.5742   31.6771   40.3308 H   0  0  0  0  0  0  0  0  0  0  0  0
   45.5535   35.9336   41.9614 H   0  0  0  0  0  0  0  0  0  0  0  0
   45.9027   34.2776   41.2858 H   0  0  0  0  0  0  0  0  0  0  0  0
   43.5144   36.8196   41.6277 H   0  0  0  0  0  0  0  0  0  0  0  0
   41.1471   36.4942   41.0593 H   0  0  0  0  0  0  0  0  0  0  0  0
   40.0990   34.2748   40.7600 H   0  0  0  0  0  0  0  0  0  0  0  0
   40.8547   31.9098   43.0956 H   0  0  0  0  0  0  0  0  0  0  0  0
   39.8548   29.6763   42.9999 H   0  0  0  0  0  0  0  0  0  0  0  0
   39.8220   28.3613   40.8651 H   0  0  0  0  0  0  0  0  0  0  0  0
   40.8426   29.4014   38.8566 H   0  0  0  0  0  0  0  0  0  0  0  0
  1  2  1  0
  1  6  2  0
  2  3  2  0
  3  4  1  0
  5  4  2  0
  6  5  1  0
  7  8  1  0
  7 12  1  0
  8  9  1  0
  8  2  1  0
  9 10  1  0
 11  7  1  0
 11 10  1  0
 13 11  1  0
 14  1  1  0
 16 17  2  0
 16 15  1  0
 17 14  1  0
 18 17  1  0
 19 18  2  0
 20 21  2  0
 20 19  1  0
 21 16  1  0
 22 23  1  0
 23 24  2  0
 24 21  1  0
 24 25  1  0
 26 25  2  0
 27 26  1  0
 28 23  1  0
 28 27  2  0
  3 29  1  0
  5 30  1  0
  7 31  1  6
  8 32  1  6
 10 33  1  0
 10 34  1  0
 11 35  1  1
 12 36  1  0
 13 37  1  0
 14 38  1  0
 14 39  1  0
 18 40  1  0
 19 41  1  0
 20 42  1  0
 25 43  1  0
 26 44  1  0
 27 45  1  0
 28 46  1  0
M  ISO  8  29  14  30  14  31  13  32  13  33  13  34  13  35  13  36   3
M  ISO  8  37   3  38   8  39   8  40  14  41  14  42  14  43  14  44  14
M  ISO  2  45  14  46  14
M  END
>  <minimizedAffinity>  (1) 
-6.04963303

>  <minimizedRMSD>  (1) 
2.19909143

$$$$
