
     RDKit          3D

 42 44  0  0  1  0  0  0  0  0999 V2000
   46.0780   34.4330   43.6360 C   0  0  0  0  0  0  0  0  0  0  0  0
   47.0320   33.4330   43.5840 C   0  0  0  0  0  0  0  0  0  0  0  0
   47.1910   32.6580   44.7480 C   0  0  0  0  0  0  0  0  0  0  0  0
   46.4220   32.9240   45.8360 N   0  0  0  0  0  0  0  0  0  0  0  0
   45.5140   33.9120   45.8190 C   0  0  0  0  0  0  0  0  0  0  0  0
   45.3530   34.6470   44.7330 N   0  0  0  0  0  0  0  0  0  0  0  0
   49.0490   34.0630   42.2580 C   0  0  2  0  0  0  0  0  0  0  0  0
   47.8300   33.1040   42.3710 C   0  0  1  0  0  0  0  0  0  0  0  0
   48.2600   31.8400   42.2670 O   0  0  0  0  0  0  0  0  0  0  0  0
   49.6210   31.7760   42.4040 C   0  0  0  0  0  0  0  0  0  0  0  0
   50.1030   33.0470   41.7560 C   0  0  1  0  0  0  0  0  0  0  0  0
   49.4460   34.6180   43.4060 O   0  0  0  0  0  0  0  0  0  0  0  0
   50.0050   32.8630   40.3960 O   0  0  0  0  0  0  0  0  0  0  0  0
   45.9050   35.2720   42.4140 C   0  0  0  0  0  0  0  0  0  0  0  0
   45.7690   33.7000   40.0130 F   0  0  0  0  0  0  0  0  0  0  0  0
   44.6660   34.2300   40.5230 C   0  0  0  0  0  0  0  0  0  0  0  0
   44.6600   34.9820   41.6830 C   0  0  0  0  0  0  0  0  0  0  0  0
   43.4700   35.4770   42.1720 C   0  0  0  0  0  0  0  0  0  0  0  0
   42.3250   35.1900   41.4610 C   0  0  0  0  0  0  0  0  0  0  0  0
   42.2650   34.4450   40.2950 C   0  0  0  0  0  0  0  0  0  0  0  0
   43.4820   33.9580   39.8240 C   0  0  0  0  0  0  0  0  0  0  0  0
   43.5130   33.1430   38.5560 C   0  0  0  0  0  0  0  0  0  0  0  0
   42.1030   32.5800   38.3270 C   0  0  0  0  0  0  0  0  0  0  0  0
   47.9309   31.8446   44.7766 H   0  0  0  0  0  0  0  0  0  0  0  0
   44.9023   34.1104   46.7114 H   0  0  0  0  0  0  0  0  0  0  0  0
   48.8489   34.9454   41.6325 H   0  0  0  0  0  0  0  0  0  0  0  0
   47.1198   33.2366   41.5415 H   0  0  0  0  0  0  0  0  0  0  0  0
   49.9076   31.7433   43.4655 H   0  0  0  0  0  0  0  0  0  0  0  0
   50.0542   30.8734   41.9484 H   0  0  0  0  0  0  0  0  0  0  0  0
   51.1345   33.3560   41.9809 H   0  0  0  0  0  0  0  0  0  0  0  0
   49.0773   34.1026   44.1666 H   0  0  0  0  0  0  0  0  0  0  0  0
   49.5478   32.0046   40.2112 H   0  0  0  0  0  0  0  0  0  0  0  0
   45.8955   36.3300   42.7148 H   0  0  0  0  0  0  0  0  0  0  0  0
   46.7420   35.0421   41.7383 H   0  0  0  0  0  0  0  0  0  0  0  0
   43.4358   36.0772   43.0932 H   0  0  0  0  0  0  0  0  0  0  0  0
   41.3770   35.5868   41.8533 H   0  0  0  0  0  0  0  0  0  0  0  0
   41.3161   34.2502   39.7738 H   0  0  0  0  0  0  0  0  0  0  0  0
   43.8039   33.7806   37.7081 H   0  0  0  0  0  0  0  0  0  0  0  0
   44.2444   32.3259   38.6416 H   0  0  0  0  0  0  0  0  0  0  0  0
   41.6226   32.3882   39.2978 H   0  0  0  0  0  0  0  0  0  0  0  0
   41.5051   33.3083   37.7596 H   0  0  0  0  0  0  0  0  0  0  0  0
   42.1712   31.6401   37.7596 H   0  0  0  0  0  0  0  0  0  0  0  0
  1  6  2  0
  2  1  1  0
  2  3  2  0
  3  4  1  0
  5  4  2  0
  6  5  1  0
  7  8  1  0
  7 12  1  0
  8  2  1  0
  9  8  1  0
  9 10  1  0
 11  7  1  0
 11 10  1  0
 13 11  1  0
 14  1  1  0
 15 16  1  0
 16 17  2  0
 17 18  1  0
 17 14  1  0
 19 18  2  0
 20 19  1  0
 21 20  2  0
 21 16  1  0
 22 21  1  0
 23 22  1  0
  3 24  1  0
  5 25  1  0
  7 26  1  6
  8 27  1  6
 10 28  1  0
 10 29  1  0
 11 30  1  6
 12 31  1  0
 13 32  1  0
 14 33  1  0
 14 34  1  0
 18 35  1  0
 19 36  1  0
 20 37  1  0
 22 38  1  0
 22 39  1  0
 23 40  1  0
 23 41  1  0
 23 42  1  0
M  ISO  8  24  14  25  14  26  13  27  13  28  13  29  13  30  13  31   3
M  ISO  8  32   3  33   8  34   8  35  14  36  14  37  14  38   8  39   8
M  ISO  3  40   8  41   8  42   8
M  END
>  <minimizedAffinity>  (1) 
-5.7003994

>  <minimizedRMSD>  (1) 
0.388470113

$$$$
