
     RDKit          3D

 27 28  0  0  1  0  0  0  0  0999 V2000
   47.0120   33.9470   42.3550 N   0  0  0  0  0  0  0  0  0  0  0  0
   47.5210   32.6260   42.3980 C   0  0  0  0  0  0  0  0  0  0  0  0
   48.2420   32.1590   41.2080 C   0  0  0  0  0  0  0  0  0  0  0  0
   48.0680   32.8150   39.9980 N   0  0  0  0  0  0  0  0  0  0  0  0
   47.1380   33.8670   39.9360 C   0  0  0  0  0  0  0  0  0  0  0  0
   47.3510   34.6970   41.1910 C   0  0  2  0  0  0  0  0  0  0  0  0
   45.4900   35.5540   43.2400 C   0  0  0  0  0  0  0  0  0  0  0  0
   46.2200   34.3850   43.4400 C   0  0  0  0  0  0  0  0  0  0  0  0
   46.0990   33.7460   44.6820 C   0  0  0  0  0  0  0  0  0  0  0  0
   45.2860   34.2900   45.6230 N   0  0  0  0  0  0  0  0  0  0  0  0
   44.5960   35.4210   45.3930 C   0  0  0  0  0  0  0  0  0  0  0  0
   44.6950   36.0530   44.2100 N   0  0  0  0  0  0  0  0  0  0  0  0
   48.6380   35.4430   41.2230 C   0  0  0  0  0  0  0  0  0  0  0  0
   48.9820   35.8240   39.9450 F   0  0  0  0  0  0  0  0  0  0  0  0
   49.6960   34.6190   41.6460 F   0  0  0  0  0  0  0  0  0  0  0  0
   48.6190   36.4710   42.1070 F   0  0  0  0  0  0  0  0  0  0  0  0
   48.2110   32.5622   43.2523 H   0  0  0  0  0  0  0  0  0  0  0  0
   46.6359   31.9772   42.4732 H   0  0  0  0  0  0  0  0  0  0  0  0
   49.3149   32.2071   41.4457 H   0  0  0  0  0  0  0  0  0  0  0  0
   47.8139   31.1627   41.0234 H   0  0  0  0  0  0  0  0  0  0  0  0
   48.9834   33.2013   39.7266 H   0  0  0  0  0  0  0  0  0  0  0  0
   47.3145   34.4794   39.0395 H   0  0  0  0  0  0  0  0  0  0  0  0
   46.1073   33.4873   39.8771 H   0  0  0  0  0  0  0  0  0  0  0  0
   46.6372   35.5338   41.1732 H   0  0  0  0  0  0  0  0  0  0  0  0
   45.5624   36.0791   42.2761 H   0  0  0  0  0  0  0  0  0  0  0  0
   46.6537   32.8192   44.8904 H   0  0  0  0  0  0  0  0  0  0  0  0
   43.9454   35.8326   46.1787 H   0  0  0  0  0  0  0  0  0  0  0  0
  1  2  1  0
  1  8  1  0
  3  2  1  0
  4  3  1  0
  5  4  1  0
  5  6  1  0
  6 13  1  0
  6  1  1  0
  7  8  2  0
  7 12  1  0
  8  9  1  0
  9 10  2  0
 11 10  1  0
 12 11  2  0
 13 15  1  0
 13 16  1  0
 14 13  1  0
  2 17  1  0
  2 18  1  0
  3 19  1  0
  3 20  1  0
  4 21  1  0
  5 22  1  0
  5 23  1  0
  6 24  1  6
  7 25  1  0
  9 26  1  0
 11 27  1  0
M  ISO  8  17  13  18  13  19  13  20  13  21   5  22  13  23  13  24  13
M  ISO  3  25  14  26  14  27  14
M  END
>  <minimizedAffinity>  (1) 
-5.03925133

>  <minimizedRMSD>  (1) 
3.70768976

$$$$
