
     RDKit          3D

 26 27  0  0  1  0  0  0  0  0999 V2000
   42.8580   34.6220   40.5260 N   0  0  0  0  0  0  0  0  0  0  0  0
   42.8350   34.3540   39.1370 C   0  0  0  0  0  0  0  0  0  0  0  0
   41.5050   34.1060   38.5390 C   0  0  0  0  0  0  0  0  0  0  0  0
   40.5790   33.4120   39.3680 N   0  0  0  0  0  0  0  0  0  0  0  0
   40.6600   33.5890   40.7450 C   0  0  0  0  0  0  0  0  0  0  0  0
   41.5790   34.7150   41.1390 C   0  0  2  0  0  0  0  0  0  0  0  0
   44.1460   35.5340   42.3220 C   0  0  0  0  0  0  0  0  0  0  0  0
   44.1180   34.7640   41.1610 C   0  0  0  0  0  0  0  0  0  0  0  0
   45.3220   34.1930   40.7230 C   0  0  0  0  0  0  0  0  0  0  0  0
   46.4600   34.4080   41.4390 N   0  0  0  0  0  0  0  0  0  0  0  0
   46.4360   35.1590   42.5570 C   0  0  0  0  0  0  0  0  0  0  0  0
   45.2920   35.7220   43.0010 N   0  0  0  0  0  0  0  0  0  0  0  0
   40.9440   36.0510   41.0510 C   0  0  0  0  0  0  0  0  0  0  0  0
   39.8020   36.1740   40.5900 O   0  0  0  0  0  0  0  0  0  0  0  0
   43.2782   35.2188   38.6215 H   0  0  0  0  0  0  0  0  0  0  0  0
   43.3931   33.4146   39.0104 H   0  0  0  0  0  0  0  0  0  0  0  0
   41.0636   35.0795   38.2793 H   0  0  0  0  0  0  0  0  0  0  0  0
   41.6814   33.4529   37.6716 H   0  0  0  0  0  0  0  0  0  0  0  0
   39.6343   33.7033   39.0789 H   0  0  0  0  0  0  0  0  0  0  0  0
   39.6531   33.8068   41.1305 H   0  0  0  0  0  0  0  0  0  0  0  0
   41.0712   32.6628   41.1728 H   0  0  0  0  0  0  0  0  0  0  0  0
   41.7775   34.5887   42.2136 H   0  0  0  0  0  0  0  0  0  0  0  0
   43.2171   35.9951   42.6888 H   0  0  0  0  0  0  0  0  0  0  0  0
   45.3466   33.5783   39.8111 H   0  0  0  0  0  0  0  0  0  0  0  0
   47.3678   35.3168   43.1199 H   0  0  0  0  0  0  0  0  0  0  0  0
   41.4915   36.9398   41.3979 H   0  0  0  0  0  0  0  0  0  0  0  0
  1  6  1  0
  1  8  1  0
  2  1  1  0
  3  2  1  0
  3  4  1  0
  4  5  1  0
  5  6  1  0
  7 12  2  0
  8  7  1  0
  9  8  2  0
  9 10  1  0
 10 11  2  0
 11 12  1  0
 13  6  1  0
 14 13  2  0
  2 15  1  0
  2 16  1  0
  3 17  1  0
  3 18  1  0
  4 19  1  0
  5 20  1  0
  5 21  1  0
  6 22  1  1
  7 23  1  0
  9 24  1  0
 11 25  1  0
 13 26  1  0
M  ISO  8  15  13  16  13  17  13  18  13  19   5  20  13  21  13  22  13
M  ISO  4  23  14  24  14  25  14  26   6
M  END
>  <minimizedAffinity>  (1) 
-3.89532089

>  <minimizedRMSD>  (1) 
3.01069903

$$$$
