
     RDKit          3D

 28 29  0  0  1  0  0  0  0  0999 V2000
   44.5780   33.5710   42.4670 N   0  0  0  0  0  0  0  0  0  0  0  0
   43.5530   32.7310   41.9140 C   0  0  0  0  0  0  0  0  0  0  0  0
   43.0220   33.1930   40.6100 C   0  0  0  0  0  0  0  0  0  0  0  0
   42.8750   34.5720   40.4420 N   0  0  0  0  0  0  0  0  0  0  0  0
   43.6520   35.4350   41.2220 C   0  0  0  0  0  0  0  0  0  0  0  0
   44.9150   34.7330   41.7030 C   0  0  2  0  0  0  0  0  0  0  0  0
   45.2630   34.1460   44.6870 C   0  0  0  0  0  0  0  0  0  0  0  0
   45.1580   33.1880   43.6870 C   0  0  0  0  0  0  0  0  0  0  0  0
   45.6440   31.9030   43.9630 C   0  0  0  0  0  0  0  0  0  0  0  0
   46.1930   31.6610   45.1930 N   0  0  0  0  0  0  0  0  0  0  0  0
   46.2750   32.6220   46.1340 C   0  0  0  0  0  0  0  0  0  0  0  0
   45.8120   33.8620   45.8850 N   0  0  0  0  0  0  0  0  0  0  0  0
   47.1440   34.3900   40.7140 C   0  0  0  0  0  0  0  0  0  0  0  0
   47.9750   34.6520   41.6490 O   0  0  0  0  0  0  0  0  0  0  0  0
   45.7130   34.3640   40.5240 N   0  0  0  0  0  0  0  0  0  0  0  0
   43.9706   31.7225   41.7779 H   0  0  0  0  0  0  0  0  0  0  0  0
   42.7116   32.7540   42.6221 H   0  0  0  0  0  0  0  0  0  0  0  0
   43.7051   32.8334   39.8264 H   0  0  0  0  0  0  0  0  0  0  0  0
   42.0015   32.7862   40.5547 H   0  0  0  0  0  0  0  0  0  0  0  0
   43.0885   34.7808   39.4563 H   0  0  0  0  0  0  0  0  0  0  0  0
   43.9328   36.3119   40.6202 H   0  0  0  0  0  0  0  0  0  0  0  0
   43.0643   35.7467   42.0981 H   0  0  0  0  0  0  0  0  0  0  0  0
   45.4966   35.4034   42.3529 H   0  0  0  0  0  0  0  0  0  0  0  0
   44.8886   35.1626   44.4966 H   0  0  0  0  0  0  0  0  0  0  0  0
   45.5855   31.1059   43.2072 H   0  0  0  0  0  0  0  0  0  0  0  0
   46.7230   32.3922   47.1120 H   0  0  0  0  0  0  0  0  0  0  0  0
   47.6685   34.1023   39.7909 H   0  0  0  0  0  0  0  0  0  0  0  0
   45.2811   34.1051   39.6255 H   0  0  0  0  0  0  0  0  0  0  0  0
  1  8  1  0
  2  1  1  0
  3  2  1  0
  4  3  1  0
  4  5  1  0
  5  6  1  0
  6  1  1  0
  7 12  2  0
  8  9  2  0
  8  7  1  0
  9 10  1  0
 10 11  2  0
 12 11  1  0
 13 14  2  0
 15 13  1  0
 15  6  1  0
  2 16  1  0
  2 17  1  0
  3 18  1  0
  3 19  1  0
  4 20  1  0
  5 21  1  0
  5 22  1  0
  6 23  1  1
  7 24  1  0
  9 25  1  0
 11 26  1  0
 13 27  1  0
 15 28  1  0
M  ISO  8  16  13  17  13  18  13  19  13  20   5  21  13  22  13  23  13
M  ISO  4  24  14  25  14  26  14  27   6
M  END
>  <minimizedAffinity>  (1) 
-3.84330106

>  <minimizedRMSD>  (1) 
1.36618328

$$$$
