
     RDKit          3D

 26 27  0  0  1  0  0  0  0  0999 V2000
   44.2960   34.0200   42.3630 N   0  0  0  0  0  0  0  0  0  0  0  0
   44.6370   33.4590   41.0840 C   0  0  0  0  0  0  0  0  0  0  0  0
   43.9390   34.0800   39.9320 C   0  0  0  0  0  0  0  0  0  0  0  0
   42.5470   34.2790   40.1480 N   0  0  0  0  0  0  0  0  0  0  0  0
   42.1380   34.6580   41.4430 C   0  0  0  0  0  0  0  0  0  0  0  0
   43.3190   35.0620   42.3120 C   0  0  2  0  0  0  0  0  0  0  0  0
   45.1490   34.3680   44.5600 C   0  0  0  0  0  0  0  0  0  0  0  0
   44.9480   33.4900   43.5020 C   0  0  0  0  0  0  0  0  0  0  0  0
   45.3970   32.1890   43.6480 C   0  0  0  0  0  0  0  0  0  0  0  0
   46.0110   31.8130   44.8050 N   0  0  0  0  0  0  0  0  0  0  0  0
   46.1920   32.6880   45.8130 C   0  0  0  0  0  0  0  0  0  0  0  0
   45.7630   33.9600   45.6950 N   0  0  0  0  0  0  0  0  0  0  0  0
   43.9250   36.2700   41.7390 N   0  0  0  0  0  0  0  0  0  0  0  0
   45.7201   33.5791   40.9343 H   0  0  0  0  0  0  0  0  0  0  0  0
   44.3195   32.4062   41.1105 H   0  0  0  0  0  0  0  0  0  0  0  0
   44.0649   33.4266   39.0561 H   0  0  0  0  0  0  0  0  0  0  0  0
   44.3868   35.0734   39.7815 H   0  0  0  0  0  0  0  0  0  0  0  0
   42.2358   35.0151   39.4982 H   0  0  0  0  0  0  0  0  0  0  0  0
   41.4467   35.5099   41.3631 H   0  0  0  0  0  0  0  0  0  0  0  0
   41.6469   33.7934   41.9135 H   0  0  0  0  0  0  0  0  0  0  0  0
   42.9653   35.2519   43.3361 H   0  0  0  0  0  0  0  0  0  0  0  0
   44.8043   35.4091   44.4739 H   0  0  0  0  0  0  0  0  0  0  0  0
   45.2589   31.4620   42.8341 H   0  0  0  0  0  0  0  0  0  0  0  0
   46.6924   32.3626   46.7370 H   0  0  0  0  0  0  0  0  0  0  0  0
   44.2367   36.8914   42.4990 H   0  0  0  0  0  0  0  0  0  0  0  0
   44.7335   36.0060   41.1580 H   0  0  0  0  0  0  0  0  0  0  0  0
  1  8  1  0
  2  1  1  0
  3  4  1  0
  3  2  1  0
  4  5  1  0
  5  6  1  0
  6  1  1  0
  7 12  2  0
  8  9  2  0
  8  7  1  0
  9 10  1  0
 10 11  2  0
 12 11  1  0
 13  6  1  0
  2 14  1  0
  2 15  1  0
  3 16  1  0
  3 17  1  0
  4 18  1  0
  5 19  1  0
  5 20  1  0
  6 21  1  1
  7 22  1  0
  9 23  1  0
 11 24  1  0
 13 25  1  0
 13 26  1  0
M  ISO  8  14  13  15  13  16  13  17  13  18   5  19  13  20  13  21  13
M  ISO  5  22  14  23  14  24  14  25   5  26   5
M  END
>  <minimizedAffinity>  (1) 
-3.14169502

>  <minimizedRMSD>  (1) 
0.91573298

$$$$
