
     RDKit          3D

 25 26  0  0  1  0  0  0  0  0999 V2000
   45.0390   33.3660   42.3280 N   0  0  0  0  0  0  0  0  0  0  0  0
   46.1140   33.3290   41.3770 C   0  0  0  0  0  0  0  0  0  0  0  0
   45.6700   33.5110   39.9720 C   0  0  0  0  0  0  0  0  0  0  0  0
   44.5060   32.8080   39.6100 N   0  0  0  0  0  0  0  0  0  0  0  0
   43.4790   32.7250   40.5720 C   0  0  0  0  0  0  0  0  0  0  0  0
   43.7500   33.6230   41.7630 C   0  0  2  0  0  0  0  0  0  0  0  0
   45.1970   34.2440   44.5360 C   0  0  0  0  0  0  0  0  0  0  0  0
   45.3590   33.1490   43.6930 C   0  0  0  0  0  0  0  0  0  0  0  0
   45.8090   31.9500   44.2500 C   0  0  0  0  0  0  0  0  0  0  0  0
   46.0700   31.9010   45.5880 N   0  0  0  0  0  0  0  0  0  0  0  0
   45.8990   32.9920   46.3800 C   0  0  0  0  0  0  0  0  0  0  0  0
   45.4650   34.1550   45.8500 N   0  0  0  0  0  0  0  0  0  0  0  0
   43.5090   35.3670   41.3310 S   0  0  0  0  0  0  0  0  0  0  0  0
   46.8248   34.1314   41.6240 H   0  0  0  0  0  0  0  0  0  0  0  0
   46.5708   32.3306   41.4446 H   0  0  0  0  0  0  0  0  0  0  0  0
   45.4824   34.5830   39.8117 H   0  0  0  0  0  0  0  0  0  0  0  0
   46.4767   33.1041   39.3446 H   0  0  0  0  0  0  0  0  0  0  0  0
   44.1132   33.2674   38.7760 H   0  0  0  0  0  0  0  0  0  0  0  0
   42.5295   33.0278   40.1064 H   0  0  0  0  0  0  0  0  0  0  0  0
   43.4295   31.6864   40.9309 H   0  0  0  0  0  0  0  0  0  0  0  0
   43.0156   33.3861   42.5469 H   0  0  0  0  0  0  0  0  0  0  0  0
   44.8435   35.1989   44.1199 H   0  0  0  0  0  0  0  0  0  0  0  0
   45.9507   31.0595   43.6200 H   0  0  0  0  0  0  0  0  0  0  0  0
   46.1150   32.9271   47.4566 H   0  0  0  0  0  0  0  0  0  0  0  0
   43.4062   36.1112   42.4766 H   0  0  0  0  0  0  0  0  0  0  0  0
  1  8  1  0
  2  1  1  0
  3  2  1  0
  4  3  1  0
  4  5  1  0
  5  6  1  0
  6  1  1  0
  7 12  2  0
  8  9  2  0
  8  7  1  0
  9 10  1  0
 10 11  2  0
 12 11  1  0
 13  6  1  0
  2 14  1  0
  2 15  1  0
  3 16  1  0
  3 17  1  0
  4 18  1  0
  5 19  1  0
  5 20  1  0
  6 21  1  1
  7 22  1  0
  9 23  1  0
 11 24  1  0
 13 25  1  0
M  ISO  8  14  13  15  13  16  13  17  13  18   5  19  13  20  13  21  13
M  ISO  4  22  14  23  14  24  14  25  11
M  END
>  <minimizedAffinity>  (1) 
-3.01326013

>  <minimizedRMSD>  (1) 
1.68767095

$$$$
