
     RDKit          3D

 38 40  0  0  1  0  0  0  0  0999 V2000
   44.1150   34.7210   41.2010 N   0  0  0  0  0  0  0  0  0  0  0  0
   44.0110   35.6830   42.2910 C   0  0  0  0  0  0  0  0  0  0  0  0
   45.3250   35.9420   42.9670 C   0  0  0  0  0  0  0  0  0  0  0  0
   46.0380   34.7800   43.2650 N   0  0  0  0  0  0  0  0  0  0  0  0
   45.9660   33.7050   42.3680 C   0  0  0  0  0  0  0  0  0  0  0  0
   45.3960   34.1730   41.0190 C   0  0  1  0  0  0  0  0  0  0  0  0
   45.7550   33.3270   39.9620 N   0  0  0  0  0  0  0  0  0  0  0  0
   45.2630   31.9950   39.9130 C   0  0  0  0  0  0  0  0  0  0  0  0
   46.0150   31.4550   38.7110 C   0  0  0  0  0  0  0  0  0  0  0  0
   47.4280   31.8840   39.1120 C   0  0  0  0  0  0  0  0  0  0  0  0
   47.1710   33.2620   39.6600 C   0  0  1  0  0  0  0  0  0  0  0  0
   47.6450   34.3150   38.8270 N   0  0  0  0  0  0  0  0  0  0  0  0
   42.0220   33.6120   41.0370 C   0  0  0  0  0  0  0  0  0  0  0  0
   42.9410   34.4660   40.4770 C   0  0  0  0  0  0  0  0  0  0  0  0
   42.6360   35.0160   39.2310 C   0  0  0  0  0  0  0  0  0  0  0  0
   41.4620   34.6910   38.6270 N   0  0  0  0  0  0  0  0  0  0  0  0
   40.5860   33.8480   39.2080 C   0  0  0  0  0  0  0  0  0  0  0  0
   40.8710   33.3090   40.4200 N   0  0  0  0  0  0  0  0  0  0  0  0
   43.6311   36.6326   41.8862 H   0  0  0  0  0  0  0  0  0  0  0  0
   43.3303   35.2579   43.0433 H   0  0  0  0  0  0  0  0  0  0  0  0
   45.9404   36.5671   42.3033 H   0  0  0  0  0  0  0  0  0  0  0  0
   45.1038   36.4391   43.9230 H   0  0  0  0  0  0  0  0  0  0  0  0
   47.0304   35.0438   43.3451 H   0  0  0  0  0  0  0  0  0  0  0  0
   46.9743   33.2937   42.2128 H   0  0  0  0  0  0  0  0  0  0  0  0
   45.3045   32.9327   42.7874 H   0  0  0  0  0  0  0  0  0  0  0  0
   45.8829   35.0599   40.5873 H   0  0  0  0  0  0  0  0  0  0  0  0
   45.5112   31.4383   40.8287 H   0  0  0  0  0  0  0  0  0  0  0  0
   44.1684   31.9176   39.8364 H   0  0  0  0  0  0  0  0  0  0  0  0
   45.6895   31.9276   37.7725 H   0  0  0  0  0  0  0  0  0  0  0  0
   45.8822   30.3820   38.5085 H   0  0  0  0  0  0  0  0  0  0  0  0
   47.8492   31.2174   39.8789 H   0  0  0  0  0  0  0  0  0  0  0  0
   48.1590   31.8540   38.2906 H   0  0  0  0  0  0  0  0  0  0  0  0
   47.7568   33.4244   40.5768 H   0  0  0  0  0  0  0  0  0  0  0  0
   47.9925   35.0870   39.4137 H   0  0  0  0  0  0  0  0  0  0  0  0
   48.4096   33.9647   38.2324 H   0  0  0  0  0  0  0  0  0  0  0  0
   42.2365   33.1645   42.0187 H   0  0  0  0  0  0  0  0  0  0  0  0
   43.3392   35.7063   38.7420 H   0  0  0  0  0  0  0  0  0  0  0  0
   39.6425   33.5975   38.7011 H   0  0  0  0  0  0  0  0  0  0  0  0
  1  2  1  0
  2  3  1  0
  3  4  1  0
  5  4  1  0
  6  1  1  0
  6  5  1  0
  7  8  1  0
  7  6  1  0
  9 10  1  0
  9  8  1  0
 10 11  1  0
 11  7  1  0
 12 11  1  0
 14 13  2  0
 14  1  1  0
 15 14  1  0
 16 17  1  0
 16 15  2  0
 17 18  2  0
 18 13  1  0
  2 19  1  0
  2 20  1  0
  3 21  1  0
  3 22  1  0
  4 23  1  0
  5 24  1  0
  5 25  1  0
  6 26  1  6
  8 27  1  0
  8 28  1  0
  9 29  1  0
  9 30  1  0
 10 31  1  0
 10 32  1  0
 11 33  1  1
 12 34  1  0
 12 35  1  0
 13 36  1  0
 15 37  1  0
 17 38  1  0
M  ISO  8  19  13  20  13  21  13  22  13  23   5  24  13  25  13  26  13
M  ISO  8  27  13  28  13  29  13  30  13  31  13  32  13  33  13  34   5
M  ISO  4  35   5  36  14  37  14  38  14
M  END
>  <minimizedAffinity>  (1) 
-3.97413754

>  <minimizedRMSD>  (1) 
0.780152857

$$$$
