
     RDKit          3D

 31 32  0  0  0  0  0  0  0  0999 V2000
   43.8680   34.7310   41.1830 C   0  0  0  0  0  0  0  0  0  0  0  0
   42.6050   35.2860   40.5850 C   0  0  0  0  0  0  0  0  0  0  0  0
   41.3880   34.8110   41.1610 N   0  0  0  0  0  0  0  0  0  0  0  0
   41.2600   33.3850   41.2100 C   0  0  0  0  0  0  0  0  0  0  0  0
   39.8730   33.0440   41.7210 C   0  0  0  0  0  0  0  0  0  0  0  0
   38.8280   33.5300   40.8680 N   0  0  0  0  0  0  0  0  0  0  0  0
   39.2310   34.5890   39.9860 C   0  0  0  0  0  0  0  0  0  0  0  0
   40.2590   35.5050   40.5990 C   0  0  0  0  0  0  0  0  0  0  0  0
   44.5210   35.6830   42.5260 S   0  0  0  0  0  0  0  0  0  0  0  0
   45.3250   34.6880   43.7940 C   0  0  0  0  0  0  0  0  0  0  0  0
   46.4250   33.9440   43.3530 C   0  0  0  0  0  0  0  0  0  0  0  0
   47.0790   33.1540   44.3140 C   0  0  0  0  0  0  0  0  0  0  0  0
   46.6240   33.1490   45.5950 N   0  0  0  0  0  0  0  0  0  0  0  0
   45.5480   33.8940   45.9700 C   0  0  0  0  0  0  0  0  0  0  0  0
   44.9040   34.6540   45.0840 N   0  0  0  0  0  0  0  0  0  0  0  0
   44.6311   34.6832   40.3921 H   0  0  0  0  0  0  0  0  0  0  0  0
   43.6133   33.7427   41.5933 H   0  0  0  0  0  0  0  0  0  0  0  0
   42.5959   35.0291   39.5155 H   0  0  0  0  0  0  0  0  0  0  0  0
   42.6290   36.3678   40.7830 H   0  0  0  0  0  0  0  0  0  0  0  0
   41.3980   32.9651   40.2027 H   0  0  0  0  0  0  0  0  0  0  0  0
   42.0232   32.9606   41.8789 H   0  0  0  0  0  0  0  0  0  0  0  0
   39.7854   31.9500   41.7946 H   0  0  0  0  0  0  0  0  0  0  0  0
   39.7532   33.5316   42.6997 H   0  0  0  0  0  0  0  0  0  0  0  0
   38.4876   32.7447   40.2950 H   0  0  0  0  0  0  0  0  0  0  0  0
   38.3436   35.1835   39.7233 H   0  0  0  0  0  0  0  0  0  0  0  0
   39.6897   34.1242   39.1008 H   0  0  0  0  0  0  0  0  0  0  0  0
   40.6245   36.1889   39.8188 H   0  0  0  0  0  0  0  0  0  0  0  0
   39.7645   36.0377   41.4246 H   0  0  0  0  0  0  0  0  0  0  0  0
   46.7612   33.9759   42.3061 H   0  0  0  0  0  0  0  0  0  0  0  0
   47.9509   32.5454   44.0322 H   0  0  0  0  0  0  0  0  0  0  0  0
   45.2063   33.8686   47.0153 H   0  0  0  0  0  0  0  0  0  0  0  0
  1  9  1  0
  2  3  1  0
  2  1  1  0
  3  4  1  0
  4  5  1  0
  6  5  1  0
  7  8  1  0
  7  6  1  0
  8  3  1  0
  9 10  1  0
 10 15  1  0
 11 10  2  0
 11 12  1  0
 12 13  2  0
 13 14  1  0
 15 14  2  0
  1 16  1  0
  1 17  1  0
  2 18  1  0
  2 19  1  0
  4 20  1  0
  4 21  1  0
  5 22  1  0
  5 23  1  0
  6 24  1  0
  7 25  1  0
  7 26  1  0
  8 27  1  0
  8 28  1  0
 11 29  1  0
 12 30  1  0
 14 31  1  0
M  ISO  8  16   8  17   8  18   8  19   8  20  13  21  13  22  13  23  13
M  ISO  8  24   5  25  13  26  13  27  13  28  13  29  14  30  14  31  14
M  END
>  <minimizedAffinity>  (1) 
-4.17816257

>  <minimizedRMSD>  (1) 
1.54204273

$$$$
