
     RDKit          3D

 28 29  0  0  1  0  0  0  0  0999 V2000
   42.2340   35.2650   39.7180 C   0  0  0  0  0  0  0  0  0  0  0  0
   40.9470   34.9230   39.0840 C   0  0  0  0  0  0  0  0  0  0  0  0
   39.7180   35.0360   39.9140 C   0  0  2  0  0  0  0  0  0  0  0  0
   40.0920   34.5670   41.3200 C   0  0  0  0  0  0  0  0  0  0  0  0
   39.6120   33.1320   41.3000 C   0  0  0  0  0  0  0  0  0  0  0  0
   38.3920   33.2710   40.6790 O   0  0  0  0  0  0  0  0  0  0  0  0
   38.6860   34.0160   39.5200 C   0  0  0  0  0  0  0  0  0  0  0  0
   43.4380   33.9800   39.8860 S   0  0  0  0  0  0  0  0  0  0  0  0
   44.8350   34.4200   40.9140 C   0  0  0  0  0  0  0  0  0  0  0  0
   44.5160   35.1640   42.0560 C   0  0  0  0  0  0  0  0  0  0  0  0
   45.5710   35.5450   42.9050 C   0  0  0  0  0  0  0  0  0  0  0  0
   46.8470   35.1690   42.5670 N   0  0  0  0  0  0  0  0  0  0  0  0
   47.0960   34.4530   41.4560 C   0  0  0  0  0  0  0  0  0  0  0  0
   46.1240   34.0760   40.6310 N   0  0  0  0  0  0  0  0  0  0  0  0
   42.0126   35.6412   40.7277 H   0  0  0  0  0  0  0  0  0  0  0  0
   42.6966   35.9900   39.0322 H   0  0  0  0  0  0  0  0  0  0  0  0
   40.8206   35.5879   38.2169 H   0  0  0  0  0  0  0  0  0  0  0  0
   41.0277   33.8513   38.8495 H   0  0  0  0  0  0  0  0  0  0  0  0
   39.3446   36.0662   39.8172 H   0  0  0  0  0  0  0  0  0  0  0  0
   41.1777   34.6248   41.4868 H   0  0  0  0  0  0  0  0  0  0  0  0
   39.6536   35.1743   42.1256 H   0  0  0  0  0  0  0  0  0  0  0  0
   40.2892   32.4877   40.7201 H   0  0  0  0  0  0  0  0  0  0  0  0
   39.5646   32.6562   42.2907 H   0  0  0  0  0  0  0  0  0  0  0  0
   37.7790   34.5171   39.1509 H   0  0  0  0  0  0  0  0  0  0  0  0
   39.0588   33.3657   38.7149 H   0  0  0  0  0  0  0  0  0  0  0  0
   43.4758   35.4413   42.2819 H   0  0  0  0  0  0  0  0  0  0  0  0
   45.3782   36.1295   43.8167 H   0  0  0  0  0  0  0  0  0  0  0  0
   48.1335   34.1713   41.2233 H   0  0  0  0  0  0  0  0  0  0  0  0
  1  8  1  0
  2  1  1  0
  3  2  1  0
  3  4  1  0
  5  4  1  0
  6  5  1  0
  7  3  1  0
  7  6  1  0
  8  9  1  0
  9 10  2  0
 10 11  1  0
 12 11  2  0
 13 12  1  0
 14  9  1  0
 14 13  2  0
  1 15  1  0
  1 16  1  0
  2 17  1  0
  2 18  1  0
  3 19  1  1
  4 20  1  0
  4 21  1  0
  5 22  1  0
  5 23  1  0
  7 24  1  0
  7 25  1  0
 10 26  1  0
 11 27  1  0
 13 28  1  0
M  ISO  8  15   8  16   8  17   8  18   8  19  13  20  13  21  13  22  13
M  ISO  6  23  13  24  13  25  13  26  14  27  14  28  14
M  END
>  <minimizedAffinity>  (1) 
-4.03808022

>  <minimizedRMSD>  (1) 
3.93446088

$$$$
