
     RDKit          3D

 18 18  0  0  0  0  0  0  0  0999 V2000
   45.5860   34.6400   44.0590 C   0  0  0  0  0  0  0  0  0  0  0  0
   46.6370   33.8910   43.5190 C   0  0  0  0  0  0  0  0  0  0  0  0
   47.2540   32.9210   44.3050 C   0  0  0  0  0  0  0  0  0  0  0  0
   46.7960   32.7460   45.5820 N   0  0  0  0  0  0  0  0  0  0  0  0
   45.7750   33.4900   46.0700 C   0  0  0  0  0  0  0  0  0  0  0  0
   45.1700   34.4220   45.3420 N   0  0  0  0  0  0  0  0  0  0  0  0
   44.8560   35.8530   42.9560 S   0  0  0  0  0  0  0  0  0  0  0  0
   44.1660   35.1490   41.4840 C   0  0  0  0  0  0  0  0  0  0  0  0
   42.7020   35.4050   41.2570 C   0  0  0  0  0  0  0  0  0  0  0  0
   41.9270   35.0270   42.3340 O   0  0  0  0  0  0  0  0  0  0  0  0
   46.9720   34.0662   42.4860 H   0  0  0  0  0  0  0  0  0  0  0  0
   48.0833   32.3148   43.9115 H   0  0  0  0  0  0  0  0  0  0  0  0
   45.4359   33.3170   47.1020 H   0  0  0  0  0  0  0  0  0  0  0  0
   44.7169   35.5585   40.6244 H   0  0  0  0  0  0  0  0  0  0  0  0
   44.2627   34.0596   41.6017 H   0  0  0  0  0  0  0  0  0  0  0  0
   42.5555   36.4802   41.0769 H   0  0  0  0  0  0  0  0  0  0  0  0
   42.3876   34.8038   40.3912 H   0  0  0  0  0  0  0  0  0  0  0  0
   42.3965   35.2560   43.1750 H   0  0  0  0  0  0  0  0  0  0  0  0
  1  6  2  0
  2  1  1  0
  2  3  2  0
  3  4  1  0
  4  5  2  0
  6  5  1  0
  7  1  1  0
  8  7  1  0
  9  8  1  0
  9 10  1  0
  2 11  1  0
  3 12  1  0
  5 13  1  0
  8 14  1  0
  8 15  1  0
  9 16  1  0
  9 17  1  0
 10 18  1  0
M  ISO  8  11  14  12  14  13  14  14   8  15   8  16   8  17   8  18   3
M  END
>  <minimizedAffinity>  (1) 
-3.06493354

>  <minimizedRMSD>  (1) 
0.246525213

$$$$
