
     RDKit          3D

 29 30  0  0  0  0  0  0  0  0999 V2000
   41.9200   35.0880   41.5340 C   0  0  0  0  0  0  0  0  0  0  0  0
   41.0030   36.0090   40.7940 C   0  0  0  0  0  0  0  0  0  0  0  0
   42.0240   36.0960   37.9220 Cl  0  0  0  0  0  0  0  0  0  0  0  0
   40.6010   35.2530   38.4250 C   0  0  0  0  0  0  0  0  0  0  0  0
   40.2090   35.2710   39.7710 C   0  0  0  0  0  0  0  0  0  0  0  0
   39.0700   34.5780   40.0830 C   0  0  0  0  0  0  0  0  0  0  0  0
   38.2640   33.8690   39.2350 C   0  0  0  0  0  0  0  0  0  0  0  0
   38.6670   33.8610   37.8980 C   0  0  0  0  0  0  0  0  0  0  0  0
   37.6950   32.9710   36.7140 Cl  0  0  0  0  0  0  0  0  0  0  0  0
   39.8140   34.5430   37.5160 C   0  0  0  0  0  0  0  0  0  0  0  0
   43.6450   35.5620   41.4740 S   0  0  0  0  0  0  0  0  0  0  0  0
   44.5460   35.0720   42.9470 C   0  0  0  0  0  0  0  0  0  0  0  0
   45.7100   34.3290   42.7260 C   0  0  0  0  0  0  0  0  0  0  0  0
   46.4680   33.9110   43.8250 C   0  0  0  0  0  0  0  0  0  0  0  0
   46.0260   34.2520   45.0530 N   0  0  0  0  0  0  0  0  0  0  0  0
   44.9000   34.9700   45.2570 C   0  0  0  0  0  0  0  0  0  0  0  0
   44.1820   35.3660   44.1990 N   0  0  0  0  0  0  0  0  0  0  0  0
   44.4150   35.3410   46.5400 N   0  0  0  0  0  0  0  0  0  0  0  0
   41.6061   35.0627   42.5879 H   0  0  0  0  0  0  0  0  0  0  0  0
   41.8454   34.1069   41.0423 H   0  0  0  0  0  0  0  0  0  0  0  0
   40.3147   36.4818   41.5100 H   0  0  0  0  0  0  0  0  0  0  0  0
   41.6113   36.7688   40.2815 H   0  0  0  0  0  0  0  0  0  0  0  0
   38.7673   34.5932   41.1404 H   0  0  0  0  0  0  0  0  0  0  0  0
   37.3625   33.3426   39.5817 H   0  0  0  0  0  0  0  0  0  0  0  0
   40.1141   34.5234   36.4579 H   0  0  0  0  0  0  0  0  0  0  0  0
   46.0250   34.0769   41.7027 H   0  0  0  0  0  0  0  0  0  0  0  0
   47.3901   33.3260   43.6927 H   0  0  0  0  0  0  0  0  0  0  0  0
   43.5477   35.8902   46.6237 H   0  0  0  0  0  0  0  0  0  0  0  0
   44.9307   35.0607   47.3864 H   0  0  0  0  0  0  0  0  0  0  0  0
  2  1  1  0
  3  4  1  0
  4  5  2  0
  5  6  1  0
  5  2  1  0
  7  6  2  0
  8  7  1  0
  9  8  1  0
 10  8  2  0
 10  4  1  0
 11  1  1  0
 11 12  1  0
 12 17  1  0
 13 12  2  0
 13 14  1  0
 14 15  2  0
 15 16  1  0
 16 18  1  0
 17 16  2  0
  1 19  1  0
  1 20  1  0
  2 21  1  0
  2 22  1  0
  6 23  1  0
  7 24  1  0
 10 25  1  0
 13 26  1  0
 14 27  1  0
 18 28  1  0
 18 29  1  0
M  ISO  8  19   8  20   8  21   8  22   8  23  14  24  14  25  14  26  14
M  ISO  1  27  14
M  END
>  <minimizedAffinity>  (1) 
-6.22985315

>  <minimizedRMSD>  (1) 
0.556644142

$$$$
