
     RDKit          3D

 41 43  0  0  1  0  0  0  0  0999 V2000
   44.8370   34.7030   42.0540 C   0  0  0  0  0  0  0  0  0  0  0  0
   46.1610   34.5720   41.6030 C   0  0  0  0  0  0  0  0  0  0  0  0
   47.1700   34.2860   42.5130 C   0  0  0  0  0  0  0  0  0  0  0  0
   46.8080   34.1460   43.8150 N   0  0  0  0  0  0  0  0  0  0  0  0
   45.5370   34.2720   44.2490 C   0  0  0  0  0  0  0  0  0  0  0  0
   44.5860   34.5470   43.3570 N   0  0  0  0  0  0  0  0  0  0  0  0
   45.2890   34.0980   45.6710 C   0  0  0  0  0  0  0  0  0  0  0  0
   44.6320   35.0020   46.2580 O   0  0  0  0  0  0  0  0  0  0  0  0
   46.1130   31.7810   48.4110 C   0  0  1  0  0  0  0  0  0  0  0  0
   45.0940   32.6740   47.6960 C   0  0  0  0  0  0  0  0  0  0  0  0
   45.8010   32.8830   46.3980 C   0  0  2  0  0  0  0  0  0  0  0  0
   47.1100   33.1350   46.7890 O   0  0  0  0  0  0  0  0  0  0  0  0
   47.3980   32.3890   47.9030 C   0  0  0  0  0  0  0  0  0  0  0  0
   45.9990   31.8540   49.7880 O   0  0  0  0  0  0  0  0  0  0  0  0
   43.5920   35.0730   40.8220 S   0  0  0  0  0  0  0  0  0  0  0  0
   41.9380   35.1540   41.5260 C   0  0  0  0  0  0  0  0  0  0  0  0
   41.0230   36.0400   40.7550 C   0  0  0  0  0  0  0  0  0  0  0  0
   41.8530   36.2500   37.8320 Cl  0  0  0  0  0  0  0  0  0  0  0  0
   40.5200   35.3060   38.4010 C   0  0  0  0  0  0  0  0  0  0  0  0
   40.2140   35.2720   39.7780 C   0  0  0  0  0  0  0  0  0  0  0  0
   39.1430   34.5000   40.1510 C   0  0  0  0  0  0  0  0  0  0  0  0
   38.3250   33.7450   39.3130 C   0  0  0  0  0  0  0  0  0  0  0  0
   38.6410   33.7920   37.9710 C   0  0  0  0  0  0  0  0  0  0  0  0
   37.6700   32.8740   36.8200 Cl  0  0  0  0  0  0  0  0  0  0  0  0
   39.7090   34.5530   37.5390 C   0  0  0  0  0  0  0  0  0  0  0  0
   46.3969   34.6952   40.5357 H   0  0  0  0  0  0  0  0  0  0  0  0
   48.2170   34.1775   42.1936 H   0  0  0  0  0  0  0  0  0  0  0  0
   46.0055   30.7045   48.2120 H   0  0  0  0  0  0  0  0  0  0  0  0
   44.1293   32.1637   47.5582 H   0  0  0  0  0  0  0  0  0  0  0  0
   44.8278   33.5963   48.2331 H   0  0  0  0  0  0  0  0  0  0  0  0
   45.6709   32.0249   45.7222 H   0  0  0  0  0  0  0  0  0  0  0  0
   48.1096   31.5915   47.6429 H   0  0  0  0  0  0  0  0  0  0  0  0
   47.8493   33.0249   48.6789 H   0  0  0  0  0  0  0  0  0  0  0  0
   46.7541   31.3705   50.2077 H   0  0  0  0  0  0  0  0  0  0  0  0
   41.5133   34.1394   41.5420 H   0  0  0  0  0  0  0  0  0  0  0  0
   42.0302   35.5751   42.5380 H   0  0  0  0  0  0  0  0  0  0  0  0
   40.3461   36.5506   41.4558 H   0  0  0  0  0  0  0  0  0  0  0  0
   41.6346   36.7663   40.1997 H   0  0  0  0  0  0  0  0  0  0  0  0
   38.9050   34.4744   41.2246 H   0  0  0  0  0  0  0  0  0  0  0  0
   37.4826   33.1505   39.6963 H   0  0  0  0  0  0  0  0  0  0  0  0
   39.9357   34.5697   36.4628 H   0  0  0  0  0  0  0  0  0  0  0  0
  1  6  1  0
  2  1  2  0
  2  3  1  0
  3  4  2  0
  4  5  1  0
  5  7  1  0
  6  5  2  0
  7  8  2  0
  9 14  1  0
 10  9  1  0
 11  7  1  0
 11 12  1  0
 11 10  1  0
 12 13  1  0
 13  9  1  0
 15 16  1  0
 15  1  1  0
 17 16  1  0
 18 19  1  0
 19 20  2  0
 20 21  1  0
 20 17  1  0
 22 21  2  0
 23 22  1  0
 24 23  1  0
 25 23  2  0
 25 19  1  0
  2 26  1  0
  3 27  1  0
  9 28  1  6
 10 29  1  0
 10 30  1  0
 11 31  1  6
 13 32  1  0
 13 33  1  0
 14 34  1  0
 16 35  1  0
 16 36  1  0
 17 37  1  0
 17 38  1  0
 21 39  1  0
 22 40  1  0
 25 41  1  0
M  ISO  8  26  14  27  14  28  13  29  13  30  13  31  13  32  13  33  13
M  ISO  8  34   3  35   8  36   8  37   8  38   8  39  14  40  14  41  14
M  END
>  <minimizedAffinity>  (1) 
-7.17641497

>  <minimizedRMSD>  (1) 
0.473182082

$$$$
