
     RDKit          3D

 41 43  0  0  0  0  0  0  0  0999 V2000
   44.8310   34.7250   42.2200 C   0  0  0  0  0  0  0  0  0  0  0  0
   46.0910   34.2880   41.7670 C   0  0  0  0  0  0  0  0  0  0  0  0
   47.0290   33.8790   42.7040 C   0  0  0  0  0  0  0  0  0  0  0  0
   46.6920   33.9200   44.0050 N   0  0  0  0  0  0  0  0  0  0  0  0
   45.4680   34.3440   44.4310 C   0  0  0  0  0  0  0  0  0  0  0  0
   44.5760   34.7340   43.5360 N   0  0  0  0  0  0  0  0  0  0  0  0
   48.3630   33.4090   42.3590 C   0  0  0  0  0  0  0  0  0  0  0  0
   49.4300   34.2060   42.7130 C   0  0  0  0  0  0  0  0  0  0  0  0
   50.7490   33.8450   42.4270 C   0  0  0  0  0  0  0  0  0  0  0  0
   50.9380   32.6520   41.7760 C   0  0  0  0  0  0  0  0  0  0  0  0
   49.9140   31.8100   41.3970 C   0  0  0  0  0  0  0  0  0  0  0  0
   48.6150   32.2230   41.7070 C   0  0  0  0  0  0  0  0  0  0  0  0
   45.2390   34.3370   45.8600 C   0  0  0  0  0  0  0  0  0  0  0  0
   44.3740   35.1490   46.2980 O   0  0  0  0  0  0  0  0  0  0  0  0
   45.9900   33.4310   46.6700 N   0  0  0  0  0  0  0  0  0  0  0  0
   43.6770   35.2330   40.9590 S   0  0  0  0  0  0  0  0  0  0  0  0
   41.9640   35.1260   41.5260 C   0  0  0  0  0  0  0  0  0  0  0  0
   41.0370   36.0410   40.7870 C   0  0  0  0  0  0  0  0  0  0  0  0
   41.9050   36.2140   37.8850 Cl  0  0  0  0  0  0  0  0  0  0  0  0
   40.5380   35.2850   38.4360 C   0  0  0  0  0  0  0  0  0  0  0  0
   40.2280   35.2760   39.7970 C   0  0  0  0  0  0  0  0  0  0  0  0
   39.1440   34.5260   40.1580 C   0  0  0  0  0  0  0  0  0  0  0  0
   38.3300   33.7820   39.3130 C   0  0  0  0  0  0  0  0  0  0  0  0
   38.6580   33.8110   37.9880 C   0  0  0  0  0  0  0  0  0  0  0  0
   37.6870   32.8990   36.8330 Cl  0  0  0  0  0  0  0  0  0  0  0  0
   39.7440   34.5490   37.5500 C   0  0  0  0  0  0  0  0  0  0  0  0
   46.3265   34.2713   40.6926 H   0  0  0  0  0  0  0  0  0  0  0  0
   49.2375   35.1543   43.2361 H   0  0  0  0  0  0  0  0  0  0  0  0
   51.5961   34.4869   42.7104 H   0  0  0  0  0  0  0  0  0  0  0  0
   51.9692   32.3489   41.5422 H   0  0  0  0  0  0  0  0  0  0  0  0
   50.1095   30.8607   40.8767 H   0  0  0  0  0  0  0  0  0  0  0  0
   47.7687   31.5810   41.4214 H   0  0  0  0  0  0  0  0  0  0  0  0
   45.8435   33.4088   47.6893 H   0  0  0  0  0  0  0  0  0  0  0  0
   46.6780   32.8000   46.2347 H   0  0  0  0  0  0  0  0  0  0  0  0
   41.6153   34.0916   41.3902 H   0  0  0  0  0  0  0  0  0  0  0  0
   41.9508   35.4326   42.5823 H   0  0  0  0  0  0  0  0  0  0  0  0
   40.3624   36.5300   41.5052 H   0  0  0  0  0  0  0  0  0  0  0  0
   41.6330   36.7953   40.2524 H   0  0  0  0  0  0  0  0  0  0  0  0
   38.8898   34.5098   41.2281 H   0  0  0  0  0  0  0  0  0  0  0  0
   37.4727   33.2043   39.6889 H   0  0  0  0  0  0  0  0  0  0  0  0
   39.9890   34.5570   36.4777 H   0  0  0  0  0  0  0  0  0  0  0  0
  1  6  1  0
  2  1  2  0
  2  3  1  0
  3  4  2  0
  4  5  1  0
  5 13  1  0
  6  5  2  0
  7  3  1  0
  7  8  2  0
  9  8  1  0
 10  9  2  0
 11 12  2  0
 11 10  1  0
 12  7  1  0
 13 14  2  0
 13 15  1  0
 16 17  1  0
 16  1  1  0
 18 17  1  0
 19 20  1  0
 20 21  2  0
 21 22  1  0
 21 18  1  0
 23 22  2  0
 24 23  1  0
 25 24  1  0
 26 24  2  0
 26 20  1  0
  2 27  1  0
  8 28  1  0
  9 29  1  0
 10 30  1  0
 11 31  1  0
 12 32  1  0
 15 33  1  0
 15 34  1  0
 17 35  1  0
 17 36  1  0
 18 37  1  0
 18 38  1  0
 22 39  1  0
 23 40  1  0
 26 41  1  0
M  ISO  8  27  14  28  14  29  14  30  14  31  14  32  14  35   8  36   8
M  ISO  5  37   8  38   8  39  14  40  14  41  14
M  END
>  <minimizedAffinity>  (1) 
-7.27758074

>  <minimizedRMSD>  (1) 
0.485513985

$$$$
