
     RDKit          3D

 38 40  0  0  0  0  0  0  0  0999 V2000
   45.0970   34.5780   42.2930 C   0  0  0  0  0  0  0  0  0  0  0  0
   46.4280   34.3390   41.9390 C   0  0  0  0  0  0  0  0  0  0  0  0
   47.3600   34.0570   42.9520 C   0  0  0  0  0  0  0  0  0  0  0  0
   46.9080   34.0340   44.2190 N   0  0  0  0  0  0  0  0  0  0  0  0
   45.6110   34.2670   44.5500 C   0  0  0  0  0  0  0  0  0  0  0  0
   44.7450   34.5330   43.5780 N   0  0  0  0  0  0  0  0  0  0  0  0
   48.7600   33.8010   42.6270 C   0  0  0  0  0  0  0  0  0  0  0  0
   49.2430   32.6060   42.1400 C   0  0  0  0  0  0  0  0  0  0  0  0
   50.6090   32.8640   41.9950 C   0  0  0  0  0  0  0  0  0  0  0  0
   50.9080   34.1390   42.3750 N   0  0  0  0  0  0  0  0  0  0  0  0
   49.7580   34.6920   42.7590 N   0  0  0  0  0  0  0  0  0  0  0  0
   45.2600   34.2110   45.9450 C   0  0  0  0  0  0  0  0  0  0  0  0
   44.3810   35.0120   46.3610 O   0  0  0  0  0  0  0  0  0  0  0  0
   45.9330   33.2470   46.7710 N   0  0  0  0  0  0  0  0  0  0  0  0
   43.9790   34.9320   40.9530 S   0  0  0  0  0  0  0  0  0  0  0  0
   42.2520   34.7710   41.4270 C   0  0  0  0  0  0  0  0  0  0  0  0
   41.3440   35.7720   40.8110 C   0  0  0  0  0  0  0  0  0  0  0  0
   42.0700   36.0250   37.8660 Cl  0  0  0  0  0  0  0  0  0  0  0  0
   40.6690   35.2040   38.4540 C   0  0  0  0  0  0  0  0  0  0  0  0
   40.4310   35.1480   39.8330 C   0  0  0  0  0  0  0  0  0  0  0  0
   39.2900   34.4740   40.2120 C   0  0  0  0  0  0  0  0  0  0  0  0
   38.3670   33.8550   39.3830 C   0  0  0  0  0  0  0  0  0  0  0  0
   38.6370   33.9330   38.0380 C   0  0  0  0  0  0  0  0  0  0  0  0
   37.5200   33.1750   36.8980 Cl  0  0  0  0  0  0  0  0  0  0  0  0
   39.7690   34.5970   37.5880 C   0  0  0  0  0  0  0  0  0  0  0  0
   46.7406   34.3712   40.8848 H   0  0  0  0  0  0  0  0  0  0  0  0
   48.6913   31.6801   41.9202 H   0  0  0  0  0  0  0  0  0  0  0  0
   51.3449   32.1355   41.6238 H   0  0  0  0  0  0  0  0  0  0  0  0
   51.8364   34.5851   42.3669 H   0  0  0  0  0  0  0  0  0  0  0  0
   45.7061   33.1800   47.7735 H   0  0  0  0  0  0  0  0  0  0  0  0
   46.6423   32.6230   46.3607 H   0  0  0  0  0  0  0  0  0  0  0  0
   41.9077   33.7687   41.1322 H   0  0  0  0  0  0  0  0  0  0  0  0
   42.2106   34.9405   42.5131 H   0  0  0  0  0  0  0  0  0  0  0  0
   40.7474   36.2480   41.6031 H   0  0  0  0  0  0  0  0  0  0  0  0
   41.9590   36.5151   40.2822 H   0  0  0  0  0  0  0  0  0  0  0  0
   39.0894   34.4213   41.2923 H   0  0  0  0  0  0  0  0  0  0  0  0
   37.4794   33.3370   39.7752 H   0  0  0  0  0  0  0  0  0  0  0  0
   39.9606   34.6444   36.5058 H   0  0  0  0  0  0  0  0  0  0  0  0
  1  6  1  0
  2  1  2  0
  2  3  1  0
  3  4  2  0
  4  5  1  0
  5 12  1  0
  6  5  2  0
  7 11  2  0
  7  3  1  0
  8  7  1  0
  9  8  2  0
  9 10  1  0
 10 11  1  0
 12 13  2  0
 12 14  1  0
 15 16  1  0
 15  1  1  0
 17 16  1  0
 18 19  1  0
 19 20  2  0
 20 21  1  0
 20 17  1  0
 22 21  2  0
 23 22  1  0
 24 23  1  0
 25 23  2  0
 25 19  1  0
  2 26  1  0
  8 27  1  0
  9 28  1  0
 10 29  1  0
 14 30  1  0
 14 31  1  0
 16 32  1  0
 16 33  1  0
 17 34  1  0
 17 35  1  0
 21 36  1  0
 22 37  1  0
 25 38  1  0
M  ISO  8  26  14  27  14  28  14  29   9  32   8  33   8  34   8  35   8
M  ISO  3  36  14  37  14  38  14
M  END
>  <minimizedAffinity>  (1) 
-7.17778397

>  <minimizedRMSD>  (1) 
0.59527576

$$$$
