
     RDKit          3D

 33 34  0  0  0  0  0  0  0  0999 V2000
   41.7960   35.1410   41.5560 C   0  0  0  0  0  0  0  0  0  0  0  0
   40.9680   36.0420   40.7180 C   0  0  0  0  0  0  0  0  0  0  0  0
   41.8080   36.2690   37.8060 Cl  0  0  0  0  0  0  0  0  0  0  0  0
   40.4710   35.3010   38.3610 C   0  0  0  0  0  0  0  0  0  0  0  0
   40.1730   35.2700   39.7260 C   0  0  0  0  0  0  0  0  0  0  0  0
   39.1020   34.4830   40.0910 C   0  0  0  0  0  0  0  0  0  0  0  0
   38.3060   33.7320   39.2420 C   0  0  0  0  0  0  0  0  0  0  0  0
   38.6260   33.7830   37.9010 C   0  0  0  0  0  0  0  0  0  0  0  0
   37.6860   32.8690   36.7320 Cl  0  0  0  0  0  0  0  0  0  0  0  0
   39.6850   34.5520   37.4810 C   0  0  0  0  0  0  0  0  0  0  0  0
   43.3310   34.6170   40.7630 S   0  0  0  0  0  0  0  0  0  0  0  0
   44.7140   34.5680   41.8800 C   0  0  0  0  0  0  0  0  0  0  0  0
   45.9890   34.6540   41.3120 C   0  0  0  0  0  0  0  0  0  0  0  0
   47.1010   34.6200   42.1460 C   0  0  0  0  0  0  0  0  0  0  0  0
   46.8880   34.5020   43.4750 N   0  0  0  0  0  0  0  0  0  0  0  0
   45.6540   34.4170   44.0240 C   0  0  0  0  0  0  0  0  0  0  0  0
   44.6020   34.4530   43.2040 N   0  0  0  0  0  0  0  0  0  0  0  0
   45.5670   34.2950   45.4520 C   0  0  0  0  0  0  0  0  0  0  0  0
   44.6220   34.8930   46.0310 O   0  0  0  0  0  0  0  0  0  0  0  0
   46.5660   33.5010   46.1150 N   0  0  0  0  0  0  0  0  0  0  0  0
   48.4460   34.7070   41.6130 C   0  0  0  0  0  0  0  0  0  0  0  0
   48.8710   35.7530   41.0830 O   0  0  0  0  0  0  0  0  0  0  0  0
   42.0491   35.6686   42.4874 H   0  0  0  0  0  0  0  0  0  0  0  0
   41.2013   34.2332   41.7354 H   0  0  0  0  0  0  0  0  0  0  0  0
   40.2823   36.6066   41.3668 H   0  0  0  0  0  0  0  0  0  0  0  0
   41.6365   36.7256   40.1741 H   0  0  0  0  0  0  0  0  0  0  0  0
   38.8550   34.4479   41.1623 H   0  0  0  0  0  0  0  0  0  0  0  0
   37.4657   33.1287   39.6160 H   0  0  0  0  0  0  0  0  0  0  0  0
   39.9238   34.5790   36.4076 H   0  0  0  0  0  0  0  0  0  0  0  0
   46.1102   34.7471   40.2227 H   0  0  0  0  0  0  0  0  0  0  0  0
   46.5388   33.3886   47.1385 H   0  0  0  0  0  0  0  0  0  0  0  0
   47.3087   33.0447   45.5664 H   0  0  0  0  0  0  0  0  0  0  0  0
   49.1072   33.8303   41.6774 H   0  0  0  0  0  0  0  0  0  0  0  0
  2  1  1  0
  3  4  1  0
  4  5  2  0
  5  6  1  0
  5  2  1  0
  7  6  2  0
  8  7  1  0
  9  8  1  0
 10  8  2  0
 10  4  1  0
 11  1  1  0
 11 12  1  0
 12 17  1  0
 13 12  2  0
 13 14  1  0
 14 15  2  0
 15 16  1  0
 16 18  1  0
 17 16  2  0
 18 19  2  0
 18 20  1  0
 21 14  1  0
 22 21  2  0
  1 23  1  0
  1 24  1  0
  2 25  1  0
  2 26  1  0
  6 27  1  0
  7 28  1  0
 10 29  1  0
 13 30  1  0
 20 31  1  0
 20 32  1  0
 21 33  1  0
M  ISO  8  23   8  24   8  25   8  26   8  27  14  28  14  29  14  30  14
M  ISO  1  33   6
M  END
>  <minimizedAffinity>  (1) 
-6.47825575

>  <minimizedRMSD>  (1) 
0.388233274

$$$$
