
     RDKit          3D

 38 40  0  0  0  0  0  0  0  0999 V2000
   46.1990   33.8610   44.7210 C   0  0  0  0  0  0  0  0  0  0  0  0
   45.1520   34.6560   45.0790 C   0  0  0  0  0  0  0  0  0  0  0  0
   44.6670   35.6970   44.3180 C   0  0  0  0  0  0  0  0  0  0  0  0
   45.2680   35.9710   43.1100 C   0  0  0  0  0  0  0  0  0  0  0  0
   46.3190   35.1930   42.7210 C   0  0  0  0  0  0  0  0  0  0  0  0
   46.7850   34.1530   43.5060 C   0  0  0  0  0  0  0  0  0  0  0  0
   47.4060   30.5390   45.6900 C   0  0  0  0  0  0  0  0  0  0  0  0
   47.5920   30.6600   47.0670 C   0  0  0  0  0  0  0  0  0  0  0  0
   47.3000   31.8900   47.6700 C   0  0  0  0  0  0  0  0  0  0  0  0
   46.8450   32.9360   46.9140 N   0  0  0  0  0  0  0  0  0  0  0  0
   46.6780   32.7720   45.5530 C   0  0  0  0  0  0  0  0  0  0  0  0
   46.9640   31.5840   44.9950 N   0  0  0  0  0  0  0  0  0  0  0  0
   47.8780   33.4510   42.9570 N   0  0  0  0  0  0  0  0  0  0  0  0
   49.4490   33.9340   42.4790 S   0  0  0  0  0  0  0  0  0  0  0  0
   49.3960   34.3210   40.9930 O   0  0  0  0  0  0  0  0  0  0  0  0
   50.0060   35.0750   43.2280 O   0  0  0  0  0  0  0  0  0  0  0  0
   50.4060   32.5510   42.5180 O   0  0  0  0  0  0  0  0  0  0  0  0
   48.4180   30.9930   41.2880 F   0  0  0  0  0  0  0  0  0  0  0  0
   49.6350   31.0330   40.6990 C   0  0  0  0  0  0  0  0  0  0  0  0
   50.5710   31.8160   41.3530 C   0  0  0  0  0  0  0  0  0  0  0  0
   51.8410   31.9060   40.8110 C   0  0  0  0  0  0  0  0  0  0  0  0
   52.1840   31.2440   39.6600 C   0  0  0  0  0  0  0  0  0  0  0  0
   51.2570   30.4760   39.0230 C   0  0  0  0  0  0  0  0  0  0  0  0
   49.9890   30.3670   39.5380 C   0  0  0  0  0  0  0  0  0  0  0  0
   44.6602   34.4527   46.0417 H   0  0  0  0  0  0  0  0  0  0  0  0
   43.8153   36.2982   44.6691 H   0  0  0  0  0  0  0  0  0  0  0  0
   44.9103   36.7952   42.4754 H   0  0  0  0  0  0  0  0  0  0  0  0
   46.8090   35.3978   41.7577 H   0  0  0  0  0  0  0  0  0  0  0  0
   47.6230   29.5874   45.1827 H   0  0  0  0  0  0  0  0  0  0  0  0
   47.9584   29.8117   47.6638 H   0  0  0  0  0  0  0  0  0  0  0  0
   47.4368   32.0155   48.7542 H   0  0  0  0  0  0  0  0  0  0  0  0
   47.6943   32.4475   42.8154 H   0  0  0  0  0  0  0  0  0  0  0  0
   49.2621   35.2985   40.9111 H   0  0  0  0  0  0  0  0  0  0  0  0
   49.9226   34.9042   44.1996 H   0  0  0  0  0  0  0  0  0  0  0  0
   52.5960   32.5254   41.3172 H   0  0  0  0  0  0  0  0  0  0  0  0
   53.2023   31.3328   39.2535 H   0  0  0  0  0  0  0  0  0  0  0  0
   51.5237   29.9441   38.0978 H   0  0  0  0  0  0  0  0  0  0  0  0
   49.2450   29.7427   39.0217 H   0  0  0  0  0  0  0  0  0  0  0  0
  1  2  2  0
  1 11  1  0
  3  2  1  0
  4  3  2  0
  5  4  1  0
  5  6  2  0
  6  1  1  0
  7  8  2  0
  8  9  1  0
 10  9  2  0
 11 10  1  0
 12 11  2  0
 12  7  1  0
 13  6  1  0
 14 17  1  0
 14 13  1  0
 14 16  1  0
 15 14  1  0
 19 18  1  0
 19 20  2  0
 20 17  1  0
 21 20  1  0
 22 21  2  0
 23 24  2  0
 23 22  1  0
 24 19  1  0
  2 25  1  0
  3 26  1  0
  4 27  1  0
  5 28  1  0
  7 29  1  0
  8 30  1  0
  9 31  1  0
 13 32  1  0
 15 33  1  0
 16 34  1  0
 21 35  1  0
 22 36  1  0
 23 37  1  0
 24 38  1  0
M  ISO  8  25  14  26  14  27  14  28  14  29  14  30  14  31  14  33   3
M  ISO  5  34   3  35  14  36  14  37  14  38  14
M  END
>  <minimizedAffinity>  (1) 
-6.00311804

>  <minimizedRMSD>  (1) 
2.42608833

$$$$
