
     RDKit          3D

 36 38  0  0  0  0  0  0  0  0999 V2000
   46.3020   33.7920   44.6140 C   0  0  0  0  0  0  0  0  0  0  0  0
   45.1530   34.4810   44.9020 C   0  0  0  0  0  0  0  0  0  0  0  0
   44.6520   35.5050   44.1490 C   0  0  0  0  0  0  0  0  0  0  0  0
   45.3310   35.8840   43.0230 C   0  0  0  0  0  0  0  0  0  0  0  0
   46.4800   35.2260   42.6980 C   0  0  0  0  0  0  0  0  0  0  0  0
   46.9660   34.1840   43.4870 C   0  0  0  0  0  0  0  0  0  0  0  0
   47.6090   30.5110   45.5840 C   0  0  0  0  0  0  0  0  0  0  0  0
   47.7090   30.6020   46.9690 C   0  0  0  0  0  0  0  0  0  0  0  0
   47.3290   31.7880   47.5760 C   0  0  0  0  0  0  0  0  0  0  0  0
   46.8700   32.8320   46.8240 N   0  0  0  0  0  0  0  0  0  0  0  0
   46.7830   32.7110   45.4560 C   0  0  0  0  0  0  0  0  0  0  0  0
   47.1570   31.5560   44.8900 N   0  0  0  0  0  0  0  0  0  0  0  0
   48.1680   33.6020   43.0170 N   0  0  0  0  0  0  0  0  0  0  0  0
   49.6230   34.2670   42.4360 S   0  0  0  0  0  0  0  0  0  0  0  0
   49.4060   34.7840   41.0280 O   0  0  0  0  0  0  0  0  0  0  0  0
   50.1680   35.3900   43.2600 O   0  0  0  0  0  0  0  0  0  0  0  0
   50.7220   33.0030   42.2890 O   0  0  0  0  0  0  0  0  0  0  0  0
   50.4020   31.8020   41.6850 C   0  0  0  0  0  0  0  0  0  0  0  0
   50.9380   30.5690   41.9960 C   0  0  0  0  0  0  0  0  0  0  0  0
   50.5680   29.4100   41.3460 C   0  0  0  0  0  0  0  0  0  0  0  0
   49.6490   29.5270   40.3820 N   0  0  0  0  0  0  0  0  0  0  0  0
   49.0980   30.7120   40.0460 C   0  0  0  0  0  0  0  0  0  0  0  0
   49.4700   31.8540   40.6930 N   0  0  0  0  0  0  0  0  0  0  0  0
   44.5944   34.1889   45.8035 H   0  0  0  0  0  0  0  0  0  0  0  0
   43.7220   36.0143   44.4418 H   0  0  0  0  0  0  0  0  0  0  0  0
   44.9569   36.7038   42.3922 H   0  0  0  0  0  0  0  0  0  0  0  0
   47.0346   35.5229   41.7956 H   0  0  0  0  0  0  0  0  0  0  0  0
   47.9003   29.5852   45.0663 H   0  0  0  0  0  0  0  0  0  0  0  0
   48.0796   29.7554   47.5656 H   0  0  0  0  0  0  0  0  0  0  0  0
   47.3972   31.8895   48.6692 H   0  0  0  0  0  0  0  0  0  0  0  0
   48.1605   32.5721   43.0291 H   0  0  0  0  0  0  0  0  0  0  0  0
   49.0231   35.6962   41.0667 H   0  0  0  0  0  0  0  0  0  0  0  0
   50.0637   35.1752   44.2208 H   0  0  0  0  0  0  0  0  0  0  0  0
   51.6914   30.5079   42.7952 H   0  0  0  0  0  0  0  0  0  0  0  0
   51.0078   28.4364   41.6081 H   0  0  0  0  0  0  0  0  0  0  0  0
   48.3446   30.7575   39.2458 H   0  0  0  0  0  0  0  0  0  0  0  0
  1  2  2  0
  1 11  1  0
  3  2  1  0
  4  3  2  0
  5  4  1  0
  5  6  2  0
  6  1  1  0
  7  8  2  0
  8  9  1  0
 10  9  2  0
 11 10  1  0
 12 11  2  0
 12  7  1  0
 13  6  1  0
 14 13  1  0
 14 16  1  0
 15 14  1  0
 17 14  1  0
 18 19  2  0
 18 17  1  0
 20 19  1  0
 21 20  2  0
 22 21  1  0
 22 23  2  0
 23 18  1  0
  2 24  1  0
  3 25  1  0
  4 26  1  0
  5 27  1  0
  7 28  1  0
  8 29  1  0
  9 30  1  0
 13 31  1  0
 15 32  1  0
 16 33  1  0
 19 34  1  0
 20 35  1  0
 22 36  1  0
M  ISO  8  24  14  25  14  26  14  27  14  28  14  29  14  30  14  32   3
M  ISO  4  33   3  34  14  35  14  36  14
M  END
>  <minimizedAffinity>  (1) 
-5.83185863

>  <minimizedRMSD>  (1) 
2.70891619

$$$$
