
     RDKit          3D

 27 28  0  0  1  0  0  0  0  0999 V2000
   46.4050   33.1710   46.5050 C   0  0  2  0  0  0  0  0  0  0  0  0
   46.5400   32.9250   45.0250 C   0  0  1  0  0  0  0  0  0  0  0  0
   46.2560   31.5260   44.9050 O   0  0  0  0  0  0  0  0  0  0  0  0
   47.2240   31.0630   45.8410 C   0  0  0  0  0  0  0  0  0  0  0  0
   46.7260   31.7920   47.0870 C   0  0  2  0  0  0  0  0  0  0  0  0
   44.6660   35.8160   43.7860 C   0  0  0  0  0  0  0  0  0  0  0  0
   43.9370   35.2800   42.6990 C   0  0  0  0  0  0  0  0  0  0  0  0
   44.0840   33.9030   42.3910 C   0  0  0  0  0  0  0  0  0  0  0  0
   44.9230   33.1600   43.1600 N   0  0  0  0  0  0  0  0  0  0  0  0
   45.6110   33.7060   44.2000 C   0  0  0  0  0  0  0  0  0  0  0  0
   45.4870   35.0140   44.5120 N   0  0  0  0  0  0  0  0  0  0  0  0
   45.0720   33.5180   46.8290 O   0  0  0  0  0  0  0  0  0  0  0  0
   45.5640   31.1620   47.4990 O   0  0  0  0  0  0  0  0  0  0  0  0
   45.2310   30.8000   48.7970 C   0  0  0  0  0  0  0  0  0  0  0  0
   44.9580   29.5810   48.6860 O   0  0  0  0  0  0  0  0  0  0  0  0
   45.2970   31.8390   49.7660 N   0  0  0  0  0  0  0  0  0  0  0  0
   47.0443   33.9855   46.8763 H   0  0  0  0  0  0  0  0  0  0  0  0
   47.5332   33.2281   44.6620 H   0  0  0  0  0  0  0  0  0  0  0  0
   47.1898   29.9702   45.9621 H   0  0  0  0  0  0  0  0  0  0  0  0
   48.2723   31.2560   45.5694 H   0  0  0  0  0  0  0  0  0  0  0  0
   47.4152   31.8221   47.9438 H   0  0  0  0  0  0  0  0  0  0  0  0
   44.5681   36.8811   44.0430 H   0  0  0  0  0  0  0  0  0  0  0  0
   43.2684   35.9190   42.1034 H   0  0  0  0  0  0  0  0  0  0  0  0
   43.5343   33.4493   41.5532 H   0  0  0  0  0  0  0  0  0  0  0  0
   44.9680   33.5451   47.8131 H   0  0  0  0  0  0  0  0  0  0  0  0
   45.0632   31.6416   50.7495 H   0  0  0  0  0  0  0  0  0  0  0  0
   45.5786   32.7888   49.4843 H   0  0  0  0  0  0  0  0  0  0  0  0
  1 12  1  0
  1  5  1  0
  2  1  1  0
  3  2  1  0
  3  4  1  0
  4  5  1  0
  5 13  1  0
  6 11  2  0
  7  6  1  0
  8  7  2  0
  8  9  1  0
  9 10  2  0
 10 11  1  0
 10  2  1  0
 13 14  1  0
 14 16  1  0
 15 14  2  0
  1 17  1  1
  2 18  1  6
  4 19  1  0
  4 20  1  0
  5 21  1  1
  6 22  1  0
  7 23  1  0
  8 24  1  0
 12 25  1  0
 16 26  1  0
 16 27  1  0
M  ISO  8  17  13  18  13  19  13  20  13  21  13  22  14  23  14  24  14
M  ISO  1  25   3
M  END
>  <minimizedAffinity>  (1) 
-4.65106344

>  <minimizedRMSD>  (1) 
1.62036014

$$$$
