
     RDKit          3D

 31 32  0  0  1  0  0  0  0  0999 V2000
   44.8050   33.3460   41.5710 C   0  0  1  0  0  0  0  0  0  0  0  0
   43.8820   34.1050   40.5880 C   0  0  0  0  0  0  0  0  0  0  0  0
   43.7470   33.2390   39.3750 C   0  0  0  0  0  0  0  0  0  0  0  0
   45.0960   33.2840   38.6850 C   0  0  0  0  0  0  0  0  0  0  0  0
   46.1850   32.8980   39.5550 C   0  0  0  0  0  0  0  0  0  0  0  0
   46.1560   33.3220   41.0540 C   0  0  1  0  0  0  0  0  0  0  0  0
   44.4160   35.9360   44.3910 C   0  0  0  0  0  0  0  0  0  0  0  0
   44.3340   35.3820   43.1290 C   0  0  0  0  0  0  0  0  0  0  0  0
   44.7880   34.0780   42.8710 C   0  0  0  0  0  0  0  0  0  0  0  0
   45.2920   33.4410   43.9310 N   0  0  0  0  0  0  0  0  0  0  0  0
   45.3800   33.9500   45.1470 C   0  0  0  0  0  0  0  0  0  0  0  0
   44.9380   35.2190   45.3960 N   0  0  0  0  0  0  0  0  0  0  0  0
   46.7360   34.5940   41.1250 O   0  0  0  0  0  0  0  0  0  0  0  0
   48.0120   34.5230   40.5790 C   0  0  0  0  0  0  0  0  0  0  0  0
   49.0030   35.6660   41.6300 S   0  0  0  0  0  0  0  0  0  0  0  0
   44.4553   32.3112   41.7012 H   0  0  0  0  0  0  0  0  0  0  0  0
   42.8962   34.2735   41.0460 H   0  0  0  0  0  0  0  0  0  0  0  0
   44.3007   35.0887   40.3291 H   0  0  0  0  0  0  0  0  0  0  0  0
   43.4996   32.2075   39.6661 H   0  0  0  0  0  0  0  0  0  0  0  0
   42.9414   33.5904   38.7136 H   0  0  0  0  0  0  0  0  0  0  0  0
   45.0736   32.5985   37.8250 H   0  0  0  0  0  0  0  0  0  0  0  0
   45.2739   34.3241   38.3742 H   0  0  0  0  0  0  0  0  0  0  0  0
   46.2374   31.7994   39.5341 H   0  0  0  0  0  0  0  0  0  0  0  0
   47.0477   33.4458   39.1480 H   0  0  0  0  0  0  0  0  0  0  0  0
   46.7113   32.5979   41.6682 H   0  0  0  0  0  0  0  0  0  0  0  0
   44.0552   36.9595   44.5706 H   0  0  0  0  0  0  0  0  0  0  0  0
   43.9039   35.9745   42.3080 H   0  0  0  0  0  0  0  0  0  0  0  0
   45.8107   33.3500   45.9622 H   0  0  0  0  0  0  0  0  0  0  0  0
   48.4061   33.4976   40.6356 H   0  0  0  0  0  0  0  0  0  0  0  0
   48.0350   34.7965   39.5138 H   0  0  0  0  0  0  0  0  0  0  0  0
   48.7659   35.3925   42.9513 H   0  0  0  0  0  0  0  0  0  0  0  0
  1  9  1  0
  2  1  1  0
  3  2  1  0
  4  3  1  0
  4  5  1  0
  5  6  1  0
  6 13  1  0
  6  1  1  0
  7 12  2  0
  8  7  1  0
  9  8  2  0
  9 10  1  0
 10 11  2  0
 11 12  1  0
 14 13  1  0
 14 15  1  0
  1 16  1  1
  2 17  1  0
  2 18  1  0
  3 19  1  0
  3 20  1  0
  4 21  1  0
  4 22  1  0
  5 23  1  0
  5 24  1  0
  6 25  1  1
  7 26  1  0
  8 27  1  0
 11 28  1  0
 14 29  1  0
 14 30  1  0
 15 31  1  0
M  ISO  8  16  13  17  13  18  13  19  13  20  13  21  13  22  13  23  13
M  ISO  8  24  13  25  13  26  14  27  14  28  14  29   8  30   8  31  11
M  END
>  <minimizedAffinity>  (1) 
-3.80482125

>  <minimizedRMSD>  (1) 
1.95614338

$$$$
