
     RDKit          3D

 19 19  0  0  0  0  0  0  0  0999 V2000
   44.5280   35.8220   44.7160 C   0  0  0  0  0  0  0  0  0  0  0  0
   45.1900   35.7680   43.4620 C   0  0  0  0  0  0  0  0  0  0  0  0
   46.1230   34.7390   43.2950 C   0  0  0  0  0  0  0  0  0  0  0  0
   46.3400   33.8650   44.3250 N   0  0  0  0  0  0  0  0  0  0  0  0
   45.6750   33.9700   45.4990 C   0  0  0  0  0  0  0  0  0  0  0  0
   44.7770   34.9410   45.6950 N   0  0  0  0  0  0  0  0  0  0  0  0
   46.7960   34.6950   41.9980 C   0  0  0  0  0  0  0  0  0  0  0  0
   47.5940   33.5600   41.9300 F   0  0  0  0  0  0  0  0  0  0  0  0
   47.6900   35.7650   41.9900 F   0  0  0  0  0  0  0  0  0  0  0  0
   45.9490   34.7120   40.9390 F   0  0  0  0  0  0  0  0  0  0  0  0
   46.1110   32.8880   46.4360 C   0  0  0  0  0  0  0  0  0  0  0  0
   45.2650   32.7960   47.6520 C   0  0  0  0  0  0  0  0  0  0  0  0
   43.7850   36.6141   44.8906 H   0  0  0  0  0  0  0  0  0  0  0  0
   44.9809   36.4959   42.6643 H   0  0  0  0  0  0  0  0  0  0  0  0
   46.0666   31.9258   45.9048 H   0  0  0  0  0  0  0  0  0  0  0  0
   47.1326   33.1300   46.7643 H   0  0  0  0  0  0  0  0  0  0  0  0
   45.9007   32.8651   48.5470 H   0  0  0  0  0  0  0  0  0  0  0  0
   44.5365   33.6202   47.6551 H   0  0  0  0  0  0  0  0  0  0  0  0
   44.7307   31.8345   47.6551 H   0  0  0  0  0  0  0  0  0  0  0  0
  1  6  2  0
  2  1  1  0
  3  2  2  0
  3  4  1  0
  4  5  2  0
  5  6  1  0
  5 11  1  0
  7  3  1  0
  8  7  1  0
  9  7  1  0
 10  7  1  0
 11 12  1  0
  1 13  1  0
  2 14  1  0
 11 15  1  0
 11 16  1  0
 12 17  1  0
 12 18  1  0
 12 19  1  0
M  ISO  7  13  14  14  14  15   8  16   8  17   8  18   8  19   8
M  END
>  <minimizedAffinity>  (1) 
-4.3104372

>  <minimizedRMSD>  (1) 
0.322272301

$$$$
