
     RDKit          3D

 29 30  0  0  0  0  0  0  0  0999 V2000
   46.8930   33.2040   45.2580 C   0  0  0  0  0  0  0  0  0  0  0  0
   45.4440   34.3290   41.9890 C   0  0  0  0  0  0  0  0  0  0  0  0
   46.6020   34.8790   41.3900 C   0  0  0  0  0  0  0  0  0  0  0  0
   47.7860   34.8320   42.1290 C   0  0  0  0  0  0  0  0  0  0  0  0
   47.7480   34.2680   43.3620 N   0  0  0  0  0  0  0  0  0  0  0  0
   46.6290   33.7560   43.9020 C   0  0  0  0  0  0  0  0  0  0  0  0
   45.4710   33.7860   43.2150 N   0  0  0  0  0  0  0  0  0  0  0  0
   48.9580   35.4030   41.4860 C   0  0  0  0  0  0  0  0  0  0  0  0
   49.1060   36.7340   41.8840 F   0  0  0  0  0  0  0  0  0  0  0  0
   48.6830   35.4490   40.1300 F   0  0  0  0  0  0  0  0  0  0  0  0
   50.1220   34.7440   41.7700 F   0  0  0  0  0  0  0  0  0  0  0  0
   45.7170   33.3010   46.1680 C   0  0  0  0  0  0  0  0  0  0  0  0
   45.5620   30.4430   45.0760 Cl  0  0  0  0  0  0  0  0  0  0  0  0
   45.5230   30.8500   46.7820 C   0  0  0  0  0  0  0  0  0  0  0  0
   45.6010   32.1850   47.1210 C   0  0  0  0  0  0  0  0  0  0  0  0
   45.5650   32.4460   48.4840 C   0  0  0  0  0  0  0  0  0  0  0  0
   45.4610   31.4960   49.4760 C   0  0  0  0  0  0  0  0  0  0  0  0
   45.3860   30.1850   49.0860 C   0  0  0  0  0  0  0  0  0  0  0  0
   45.4160   29.8490   47.7380 C   0  0  0  0  0  0  0  0  0  0  0  0
   47.7291   33.7610   45.7060 H   0  0  0  0  0  0  0  0  0  0  0  0
   47.1271   32.1360   45.1374 H   0  0  0  0  0  0  0  0  0  0  0  0
   44.4948   34.3473   41.4334 H   0  0  0  0  0  0  0  0  0  0  0  0
   46.5709   35.3247   40.3848 H   0  0  0  0  0  0  0  0  0  0  0  0
   45.7992   34.2368   46.7402 H   0  0  0  0  0  0  0  0  0  0  0  0
   44.8201   33.2695   45.5319 H   0  0  0  0  0  0  0  0  0  0  0  0
   45.6244   33.4986   48.7978 H   0  0  0  0  0  0  0  0  0  0  0  0
   45.4391   31.7788   50.5388 H   0  0  0  0  0  0  0  0  0  0  0  0
   45.3015   29.3931   49.8448 H   0  0  0  0  0  0  0  0  0  0  0  0
   45.3553   28.7948   47.4298 H   0  0  0  0  0  0  0  0  0  0  0  0
  1 12  1  0
  2  7  2  0
  3  2  1  0
  3  4  2  0
  4  5  1  0
  5  6  2  0
  6  1  1  0
  7  6  1  0
  8 11  1  0
  8  9  1  0
  8  4  1  0
 10  8  1  0
 12 15  1  0
 13 14  1  0
 14 15  2  0
 14 19  1  0
 15 16  1  0
 16 17  2  0
 18 17  1  0
 19 18  2  0
  1 20  1  0
  1 21  1  0
  2 22  1  0
  3 23  1  0
 12 24  1  0
 12 25  1  0
 16 26  1  0
 17 27  1  0
 18 28  1  0
 19 29  1  0
M  ISO  8  20   8  21   8  22  14  23  14  24   8  25   8  26  14  27  14
M  ISO  2  28  14  29  14
M  END
>  <minimizedAffinity>  (1) 
-5.62698936

>  <minimizedRMSD>  (1) 
2.39455652

$$$$
