
     RDKit          3D

 26 27  0  0  0  0  0  0  0  0999 V2000
   44.5280   35.8360   44.6490 C   0  0  0  0  0  0  0  0  0  0  0  0
   45.2030   35.7620   43.4080 C   0  0  0  0  0  0  0  0  0  0  0  0
   46.1450   34.7500   43.2540 C   0  0  0  0  0  0  0  0  0  0  0  0
   46.3480   33.9100   44.3020 N   0  0  0  0  0  0  0  0  0  0  0  0
   45.6810   34.0160   45.4700 C   0  0  0  0  0  0  0  0  0  0  0  0
   44.7760   34.9710   45.6460 N   0  0  0  0  0  0  0  0  0  0  0  0
   46.8320   34.6900   41.9690 C   0  0  0  0  0  0  0  0  0  0  0  0
   47.6310   33.5660   41.9190 F   0  0  0  0  0  0  0  0  0  0  0  0
   47.7230   35.7750   41.9630 F   0  0  0  0  0  0  0  0  0  0  0  0
   46.0050   34.7080   40.9080 F   0  0  0  0  0  0  0  0  0  0  0  0
   46.1330   32.9510   46.4260 C   0  0  0  0  0  0  0  0  0  0  0  0
   45.2180   32.8090   47.5980 C   0  0  0  0  0  0  0  0  0  0  0  0
   45.9050   32.3540   48.8450 C   0  0  0  0  0  0  0  0  0  0  0  0
   45.2010   31.1660   49.5480 C   0  0  0  0  0  0  0  0  0  0  0  0
   46.5640   31.0440   48.9700 C   0  0  0  0  0  0  0  0  0  0  0  0
   43.7776   36.6256   44.8020 H   0  0  0  0  0  0  0  0  0  0  0  0
   44.9916   36.4755   42.5979 H   0  0  0  0  0  0  0  0  0  0  0  0
   46.1729   31.9906   45.8911 H   0  0  0  0  0  0  0  0  0  0  0  0
   47.1226   33.2425   46.8078 H   0  0  0  0  0  0  0  0  0  0  0  0
   44.7518   33.7857   47.7950 H   0  0  0  0  0  0  0  0  0  0  0  0
   44.4796   32.0364   47.3376 H   0  0  0  0  0  0  0  0  0  0  0  0
   46.2561   33.3724   49.0677 H   0  0  0  0  0  0  0  0  0  0  0  0
   45.0585   31.1712   50.6387 H   0  0  0  0  0  0  0  0  0  0  0  0
   44.2444   30.6352   49.4334 H   0  0  0  0  0  0  0  0  0  0  0  0
   46.7175   30.4278   48.0718 H   0  0  0  0  0  0  0  0  0  0  0  0
   47.5333   30.7181   49.3752 H   0  0  0  0  0  0  0  0  0  0  0  0
  1  6  2  0
  2  1  1  0
  3  2  2  0
  3  4  1  0
  4  5  2  0
  5  6  1  0
  5 11  1  0
  7  3  1  0
  8  7  1  0
  9  7  1  0
 10  7  1  0
 11 12  1  0
 12 13  1  0
 13 15  1  0
 13 14  1  0
 15 14  1  0
  1 16  1  0
  2 17  1  0
 11 18  1  0
 11 19  1  0
 12 20  1  0
 12 21  1  0
 13 22  1  0
 14 23  1  0
 14 24  1  0
 15 25  1  0
 15 26  1  0
M  ISO  8  16  14  17  14  18   8  19   8  20   8  21   8  22  13  23  13
M  ISO  3  24  13  25  13  26  13
M  END
>  <minimizedAffinity>  (1) 
-5.16133451

>  <minimizedRMSD>  (1) 
0.633103609

$$$$
