
     RDKit          3D

 31 32  0  0  0  0  0  0  0  0999 V2000
   45.6290   32.1370   47.4100 C   0  0  0  0  0  0  0  0  0  0  0  0
   45.4870   30.7120   47.0890 C   0  0  0  0  0  0  0  0  0  0  0  0
   45.6480   30.0640   45.9020 C   0  0  0  0  0  0  0  0  0  0  0  0
   45.4000   28.7320   46.1330 C   0  0  0  0  0  0  0  0  0  0  0  0
   45.0980   28.5850   47.4170 N   0  0  0  0  0  0  0  0  0  0  0  0
   45.1550   29.7830   47.9740 N   0  0  0  0  0  0  0  0  0  0  0  0
   44.7580   27.3430   48.1270 C   0  0  0  0  0  0  0  0  0  0  0  0
   44.3390   27.6390   49.4330 F   0  0  0  0  0  0  0  0  0  0  0  0
   45.8220   26.4820   48.0880 F   0  0  0  0  0  0  0  0  0  0  0  0
   43.6780   26.7650   47.5060 F   0  0  0  0  0  0  0  0  0  0  0  0
   45.4630   27.7030   45.1420 N   0  0  0  0  0  0  0  0  0  0  0  0
   46.6300   32.8190   46.5100 C   0  0  0  0  0  0  0  0  0  0  0  0
   44.5490   35.4730   44.9320 C   0  0  0  0  0  0  0  0  0  0  0  0
   45.1080   35.5040   43.6250 C   0  0  0  0  0  0  0  0  0  0  0  0
   46.1470   34.6280   43.3680 C   0  0  0  0  0  0  0  0  0  0  0  0
   46.5300   33.8320   44.3730 N   0  0  0  0  0  0  0  0  0  0  0  0
   46.0070   33.8030   45.5960 C   0  0  0  0  0  0  0  0  0  0  0  0
   45.0140   34.6310   45.8640 N   0  0  0  0  0  0  0  0  0  0  0  0
   46.7240   34.6580   42.0260 C   0  0  0  0  0  0  0  0  0  0  0  0
   47.5220   33.5280   41.8310 F   0  0  0  0  0  0  0  0  0  0  0  0
   47.6280   35.7190   42.0180 F   0  0  0  0  0  0  0  0  0  0  0  0
   45.7870   34.7510   41.0420 F   0  0  0  0  0  0  0  0  0  0  0  0
   44.6516   32.6275   47.2911 H   0  0  0  0  0  0  0  0  0  0  0  0
   45.9902   32.2190   48.4458 H   0  0  0  0  0  0  0  0  0  0  0  0
   45.9243   30.5204   44.9401 H   0  0  0  0  0  0  0  0  0  0  0  0
   45.2618   26.7264   45.4001 H   0  0  0  0  0  0  0  0  0  0  0  0
   45.7095   27.9385   44.1701 H   0  0  0  0  0  0  0  0  0  0  0  0
   47.3676   33.3408   47.1374 H   0  0  0  0  0  0  0  0  0  0  0  0
   47.0980   32.0415   45.8883 H   0  0  0  0  0  0  0  0  0  0  0  0
   43.7205   36.1521   45.1819 H   0  0  0  0  0  0  0  0  0  0  0  0
   44.7317   36.1926   42.8542 H   0  0  0  0  0  0  0  0  0  0  0  0
  2  1  1  0
  2  6  2  0
  3  4  2  0
  3  2  1  0
  4  5  1  0
  5  6  1  0
  5  7  1  0
  7  8  1  0
  9  7  1  0
 10  7  1  0
 11  4  1  0
 12  1  1  0
 13 18  2  0
 14 13  1  0
 15 14  2  0
 15 16  1  0
 16 17  2  0
 17 18  1  0
 17 12  1  0
 19 15  1  0
 20 19  1  0
 21 19  1  0
 22 19  1  0
  1 23  1  0
  1 24  1  0
  3 25  1  0
 11 26  1  0
 11 27  1  0
 12 28  1  0
 12 29  1  0
 13 30  1  0
 14 31  1  0
M  ISO  7  23   8  24   8  25  14  28   8  29   8  30  14  31  14
M  END
>  <minimizedAffinity>  (1) 
-5.23585558

>  <minimizedRMSD>  (1) 
0.0296572763

$$$$
