
     RDKit          3D

 37 38  0  0  0  0  0  0  0  0999 V2000
   45.6440   32.0800   47.4470 C   0  0  0  0  0  0  0  0  0  0  0  0
   45.4580   30.6530   47.1130 C   0  0  0  0  0  0  0  0  0  0  0  0
   45.5420   30.0110   45.9030 C   0  0  0  0  0  0  0  0  0  0  0  0
   45.2810   28.6940   46.1600 C   0  0  0  0  0  0  0  0  0  0  0  0
   45.0500   28.5340   47.4550 N   0  0  0  0  0  0  0  0  0  0  0  0
   45.1590   29.7330   48.0240 N   0  0  0  0  0  0  0  0  0  0  0  0
   44.7280   27.2960   48.1800 C   0  0  0  0  0  0  0  0  0  0  0  0
   44.3520   27.6000   49.5030 F   0  0  0  0  0  0  0  0  0  0  0  0
   45.7760   26.4340   48.1130 F   0  0  0  0  0  0  0  0  0  0  0  0
   43.6280   26.7210   47.5810 F   0  0  0  0  0  0  0  0  0  0  0  0
   45.2550   27.6360   45.2110 N   0  0  0  0  0  0  0  0  0  0  0  0
   43.9220   27.1750   44.2520 S   0  0  0  0  0  0  0  0  0  0  0  0
   43.6920   25.6770   44.3920 O   0  0  0  0  0  0  0  0  0  0  0  0
   42.6570   27.8720   44.5800 O   0  0  0  0  0  0  0  0  0  0  0  0
   44.3260   27.4090   42.6270 O   0  0  0  0  0  0  0  0  0  0  0  0
   46.6290   32.7410   46.5190 C   0  0  0  0  0  0  0  0  0  0  0  0
   44.5600   35.4430   45.0080 C   0  0  0  0  0  0  0  0  0  0  0  0
   45.1020   35.4920   43.6920 C   0  0  0  0  0  0  0  0  0  0  0  0
   46.1280   34.6060   43.4140 C   0  0  0  0  0  0  0  0  0  0  0  0
   46.5130   33.7900   44.4030 N   0  0  0  0  0  0  0  0  0  0  0  0
   46.0060   33.7460   45.6310 C   0  0  0  0  0  0  0  0  0  0  0  0
   45.0280   34.5800   45.9200 N   0  0  0  0  0  0  0  0  0  0  0  0
   46.6870   34.6540   42.0640 C   0  0  0  0  0  0  0  0  0  0  0  0
   47.4710   33.5200   41.8410 F   0  0  0  0  0  0  0  0  0  0  0  0
   47.6030   35.7050   42.0590 F   0  0  0  0  0  0  0  0  0  0  0  0
   45.7330   34.7640   41.0970 F   0  0  0  0  0  0  0  0  0  0  0  0
   44.6755   32.5951   47.3658 H   0  0  0  0  0  0  0  0  0  0  0  0
   46.0382   32.1457   48.4718 H   0  0  0  0  0  0  0  0  0  0  0  0
   45.7721   30.4632   44.9270 H   0  0  0  0  0  0  0  0  0  0  0  0
   46.1240   27.0963   45.0911 H   0  0  0  0  0  0  0  0  0  0  0  0
   43.6552   25.4371   45.3518 H   0  0  0  0  0  0  0  0  0  0  0  0
   42.5562   27.9275   45.5633 H   0  0  0  0  0  0  0  0  0  0  0  0
   45.1811   27.9043   42.5676 H   0  0  0  0  0  0  0  0  0  0  0  0
   47.4003   33.2393   47.1246 H   0  0  0  0  0  0  0  0  0  0  0  0
   47.0531   31.9547   45.8772 H   0  0  0  0  0  0  0  0  0  0  0  0
   43.7421   36.1261   45.2808 H   0  0  0  0  0  0  0  0  0  0  0  0
   44.7250   36.1969   42.9364 H   0  0  0  0  0  0  0  0  0  0  0  0
  2  1  1  0
  2  6  2  0
  3  4  2  0
  3  2  1  0
  4  5  1  0
  5  6  1  0
  5  7  1  0
  7  8  1  0
  9  7  1  0
 10  7  1  0
 11  4  1  0
 12 13  1  0
 12 14  1  0
 12 11  1  0
 15 12  1  0
 16  1  1  0
 17 22  2  0
 18 17  1  0
 19 18  2  0
 19 20  1  0
 20 21  2  0
 21 22  1  0
 21 16  1  0
 23 19  1  0
 24 23  1  0
 25 23  1  0
 26 23  1  0
  1 27  1  0
  1 28  1  0
  3 29  1  0
 11 30  1  0
 13 31  1  0
 14 32  1  0
 15 33  1  0
 16 34  1  0
 16 35  1  0
 17 36  1  0
 18 37  1  0
M  ISO  8  27   8  28   8  29  14  31   3  32   3  33   3  34   8  35   8
M  ISO  2  36  14  37  14
M  END
>  <minimizedAffinity>  (1) 
-5.01145172

>  <minimizedRMSD>  (1) 
0.23878783

$$$$
