
     RDKit          3D

 45 47  0  0  0  0  0  0  0  0999 V2000
   47.4090   31.5270   45.0090 C   0  0  0  0  0  0  0  0  0  0  0  0
   46.7150   31.5620   46.2560 C   0  0  0  0  0  0  0  0  0  0  0  0
   45.9120   32.6390   46.5070 C   0  0  0  0  0  0  0  0  0  0  0  0
   45.8570   33.5600   45.5490 N   0  0  0  0  0  0  0  0  0  0  0  0
   46.4890   33.5480   44.3920 C   0  0  0  0  0  0  0  0  0  0  0  0
   47.2640   32.5330   44.1210 N   0  0  0  0  0  0  0  0  0  0  0  0
   46.9830   30.4310   47.0290 N   0  0  0  0  0  0  0  0  0  0  0  0
   46.3330   29.1920   47.4000 C   0  0  0  0  0  0  0  0  0  0  0  0
   47.2680   28.0130   47.2090 C   0  0  0  0  0  0  0  0  0  0  0  0
   48.4220   28.1170   48.0630 N   0  0  0  0  0  0  0  0  0  0  0  0
   48.6290   29.4360   48.5900 C   0  0  0  0  0  0  0  0  0  0  0  0
   48.3080   30.5370   47.6440 C   0  0  0  0  0  0  0  0  0  0  0  0
   45.2200   32.6580   47.7820 C   0  0  0  0  0  0  0  0  0  0  0  0
   44.4740   33.8490   47.8860 F   0  0  0  0  0  0  0  0  0  0  0  0
   46.2070   32.8310   48.7660 F   0  0  0  0  0  0  0  0  0  0  0  0
   44.4110   31.6010   47.9920 F   0  0  0  0  0  0  0  0  0  0  0  0
   46.2440   34.7140   43.5050 C   0  0  0  0  0  0  0  0  0  0  0  0
   46.1400   34.3600   42.0510 C   0  0  0  0  0  0  0  0  0  0  0  0
   44.7830   34.5690   41.5310 C   0  0  0  0  0  0  0  0  0  0  0  0
   43.7020   35.1440   42.1250 C   0  0  0  0  0  0  0  0  0  0  0  0
   42.6750   35.0960   41.2190 C   0  0  0  0  0  0  0  0  0  0  0  0
   43.1260   34.5080   40.1130 N   0  0  0  0  0  0  0  0  0  0  0  0
   44.4000   34.1950   40.3170 N   0  0  0  0  0  0  0  0  0  0  0  0
   42.3960   34.2280   38.8660 C   0  0  0  0  0  0  0  0  0  0  0  0
   43.1750   33.4450   38.0140 F   0  0  0  0  0  0  0  0  0  0  0  0
   41.9830   35.4080   38.2990 F   0  0  0  0  0  0  0  0  0  0  0  0
   41.2780   33.4700   39.1890 F   0  0  0  0  0  0  0  0  0  0  0  0
   41.3270   35.6010   41.4370 C   0  0  0  0  0  0  0  0  0  0  0  0
   40.3730   34.8870   41.8550 O   0  0  0  0  0  0  0  0  0  0  0  0
   48.0647   30.6765   44.7708 H   0  0  0  0  0  0  0  0  0  0  0  0
   46.0317   29.2455   48.4566 H   0  0  0  0  0  0  0  0  0  0  0  0
   45.4522   29.0504   46.7565 H   0  0  0  0  0  0  0  0  0  0  0  0
   46.7279   27.0850   47.4479 H   0  0  0  0  0  0  0  0  0  0  0  0
   47.6094   28.0064   46.1633 H   0  0  0  0  0  0  0  0  0  0  0  0
   48.3030   27.4659   48.8522 H   0  0  0  0  0  0  0  0  0  0  0  0
   47.9946   29.5531   49.4810 H   0  0  0  0  0  0  0  0  0  0  0  0
   49.7032   29.5184   48.8119 H   0  0  0  0  0  0  0  0  0  0  0  0
   49.0617   30.5345   46.8428 H   0  0  0  0  0  0  0  0  0  0  0  0
   48.3121   31.4685   48.2290 H   0  0  0  0  0  0  0  0  0  0  0  0
   45.3025   35.1920   43.8133 H   0  0  0  0  0  0  0  0  0  0  0  0
   47.1111   35.3828   43.6097 H   0  0  0  0  0  0  0  0  0  0  0  0
   46.8397   34.9890   41.4812 H   0  0  0  0  0  0  0  0  0  0  0  0
   46.3857   33.2933   41.9420 H   0  0  0  0  0  0  0  0  0  0  0  0
   43.6605   35.5669   43.1396 H   0  0  0  0  0  0  0  0  0  0  0  0
   41.1288   36.6622   41.2261 H   0  0  0  0  0  0  0  0  0  0  0  0
  1  2  2  0
  2  3  1  0
  2  7  1  0
  3 13  1  0
  4  3  2  0
  5  4  1  0
  6  5  2  0
  6  1  1  0
  7  8  1  0
  7 12  1  0
  9  8  1  0
  9 10  1  0
 10 11  1  0
 12 11  1  0
 13 14  1  0
 13 16  1  0
 13 15  1  0
 17  5  1  0
 18 17  1  0
 19 18  1  0
 19 20  1  0
 21 28  1  0
 21 20  2  0
 22 23  1  0
 22 21  1  0
 23 19  2  0
 24 27  1  0
 24 22  1  0
 25 24  1  0
 26 24  1  0
 28 29  2  0
  1 30  1  0
  8 31  1  0
  8 32  1  0
  9 33  1  0
  9 34  1  0
 10 35  1  0
 11 36  1  0
 11 37  1  0
 12 38  1  0
 12 39  1  0
 17 40  1  0
 17 41  1  0
 18 42  1  0
 18 43  1  0
 20 44  1  0
 28 45  1  0
M  ISO  8  30  14  31  13  32  13  33  13  34  13  35   5  36  13  37  13
M  ISO  8  38  13  39  13  40   8  41   8  42   8  43   8  44  14  45   6
M  END
>  <minimizedAffinity>  (1) 
-5.78464222

>  <minimizedRMSD>  (1) 
8.62295532

$$$$
