
     RDKit          3D

 46 48  0  0  0  0  0  0  0  0999 V2000
   46.8220   31.6110   48.2250 C   0  0  0  0  0  0  0  0  0  0  0  0
   45.3610   33.7270   45.5400 C   0  0  0  0  0  0  0  0  0  0  0  0
   46.1210   33.2740   44.4180 C   0  0  0  0  0  0  0  0  0  0  0  0
   47.0600   32.2990   44.6410 C   0  0  0  0  0  0  0  0  0  0  0  0
   47.1800   31.8620   45.8910 N   0  0  0  0  0  0  0  0  0  0  0  0
   46.4840   32.2690   46.9510 C   0  0  0  0  0  0  0  0  0  0  0  0
   45.5750   33.2070   46.7540 N   0  0  0  0  0  0  0  0  0  0  0  0
   45.7380   33.9680   43.2460 N   0  0  0  0  0  0  0  0  0  0  0  0
   44.8790   33.5160   42.1790 C   0  0  0  0  0  0  0  0  0  0  0  0
   43.7580   34.4550   41.8940 C   0  0  0  0  0  0  0  0  0  0  0  0
   44.1290   35.8990   41.8730 C   0  0  0  0  0  0  0  0  0  0  0  0
   45.1310   36.3200   42.8940 C   0  0  0  0  0  0  0  0  0  0  0  0
   46.2170   35.3040   42.9900 C   0  0  0  0  0  0  0  0  0  0  0  0
   47.8070   31.8580   43.4780 C   0  0  0  0  0  0  0  0  0  0  0  0
   48.7800   30.9200   43.8850 F   0  0  0  0  0  0  0  0  0  0  0  0
   48.5680   32.9370   43.0530 F   0  0  0  0  0  0  0  0  0  0  0  0
   47.0440   31.2880   42.5030 F   0  0  0  0  0  0  0  0  0  0  0  0
   45.6010   31.0480   48.9290 C   0  0  0  0  0  0  0  0  0  0  0  0
   45.1650   29.7730   48.3330 C   0  0  0  0  0  0  0  0  0  0  0  0
   44.8450   29.4770   47.0370 C   0  0  0  0  0  0  0  0  0  0  0  0
   44.5010   28.1490   47.0010 C   0  0  0  0  0  0  0  0  0  0  0  0
   44.6080   27.6600   48.2320 N   0  0  0  0  0  0  0  0  0  0  0  0
   45.0100   28.6530   49.0260 N   0  0  0  0  0  0  0  0  0  0  0  0
   44.3440   26.2860   48.6890 C   0  0  0  0  0  0  0  0  0  0  0  0
   44.4180   26.2240   50.0860 F   0  0  0  0  0  0  0  0  0  0  0  0
   45.2280   25.4240   48.0690 F   0  0  0  0  0  0  0  0  0  0  0  0
   43.0680   25.9440   48.3310 F   0  0  0  0  0  0  0  0  0  0  0  0
   44.0890   27.4120   45.8100 C   0  0  0  0  0  0  0  0  0  0  0  0
   42.8820   27.3000   45.4450 O   0  0  0  0  0  0  0  0  0  0  0  0
   47.3023   32.3474   48.8861 H   0  0  0  0  0  0  0  0  0  0  0  0
   47.4954   30.7709   47.9995 H   0  0  0  0  0  0  0  0  0  0  0  0
   44.5968   34.5066   45.4051 H   0  0  0  0  0  0  0  0  0  0  0  0
   45.4831   33.4047   41.2665 H   0  0  0  0  0  0  0  0  0  0  0  0
   44.4346   32.5615   42.4975 H   0  0  0  0  0  0  0  0  0  0  0  0
   43.3397   34.1968   40.9100 H   0  0  0  0  0  0  0  0  0  0  0  0
   43.0423   34.3358   42.7208 H   0  0  0  0  0  0  0  0  0  0  0  0
   44.5410   36.1285   40.8792 H   0  0  0  0  0  0  0  0  0  0  0  0
   43.2072   36.4508   42.1095 H   0  0  0  0  0  0  0  0  0  0  0  0
   45.5630   37.2888   42.6029 H   0  0  0  0  0  0  0  0  0  0  0  0
   44.6346   36.4120   43.8713 H   0  0  0  0  0  0  0  0  0  0  0  0
   46.7724   35.2981   42.0405 H   0  0  0  0  0  0  0  0  0  0  0  0
   46.8497   35.5885   43.8436 H   0  0  0  0  0  0  0  0  0  0  0  0
   45.8464   30.8805   49.9881 H   0  0  0  0  0  0  0  0  0  0  0  0
   44.7806   31.7731   48.8231 H   0  0  0  0  0  0  0  0  0  0  0  0
   44.8604   30.1719   46.1845 H   0  0  0  0  0  0  0  0  0  0  0  0
   44.8664   26.9298   45.1991 H   0  0  0  0  0  0  0  0  0  0  0  0
  1 18  1  0
  2  7  2  0
  3  4  2  0
  3  2  1  0
  4  5  1  0
  5  6  2  0
  6  1  1  0
  7  6  1  0
  8  3  1  0
  9  8  1  0
 10  9  1  0
 11 10  1  0
 11 12  1  0
 12 13  1  0
 13  8  1  0
 14 15  1  0
 14  4  1  0
 16 14  1  0
 17 14  1  0
 19 18  1  0
 19 23  2  0
 20 19  1  0
 21 20  2  0
 21 22  1  0
 22 24  1  0
 22 23  1  0
 24 25  1  0
 26 24  1  0
 27 24  1  0
 28 21  1  0
 29 28  2  0
  1 30  1  0
  1 31  1  0
  2 32  1  0
  9 33  1  0
  9 34  1  0
 10 35  1  0
 10 36  1  0
 11 37  1  0
 11 38  1  0
 12 39  1  0
 12 40  1  0
 13 41  1  0
 13 42  1  0
 18 43  1  0
 18 44  1  0
 20 45  1  0
 28 46  1  0
M  ISO  8  30   8  31   8  32  14  33  13  34  13  35  13  36  13  37  13
M  ISO  8  38  13  39  13  40  13  41  13  42  13  43   8  44   8  45  14
M  ISO  1  46   6
M  END
>  <minimizedAffinity>  (1) 
-5.03364611

>  <minimizedRMSD>  (1) 
2.40043497

$$$$
