
     RDKit          3D

 38 40  0  0  0  0  0  0  0  0999 V2000
   46.4850   32.0950   47.8850 C   0  0  0  0  0  0  0  0  0  0  0  0
   45.8290   33.8470   44.6890 C   0  0  0  0  0  0  0  0  0  0  0  0
   46.6510   33.1100   43.7810 C   0  0  0  0  0  0  0  0  0  0  0  0
   47.3570   32.0770   44.3210 C   0  0  0  0  0  0  0  0  0  0  0  0
   47.2200   31.8480   45.6390 N   0  0  0  0  0  0  0  0  0  0  0  0
   46.4570   32.5380   46.4750 C   0  0  0  0  0  0  0  0  0  0  0  0
   45.7630   33.5380   45.9840 N   0  0  0  0  0  0  0  0  0  0  0  0
   46.6400   33.5800   42.4010 C   0  0  0  0  0  0  0  0  0  0  0  0
   45.6740   33.2570   41.4730 C   0  0  0  0  0  0  0  0  0  0  0  0
   45.9200   33.8390   40.2560 C   0  0  0  0  0  0  0  0  0  0  0  0
   47.0510   34.5290   40.4400 N   0  0  0  0  0  0  0  0  0  0  0  0
   47.4370   34.3620   41.6690 N   0  0  0  0  0  0  0  0  0  0  0  0
   48.2080   31.3060   43.4180 C   0  0  0  0  0  0  0  0  0  0  0  0
   48.8890   30.3090   44.1420 F   0  0  0  0  0  0  0  0  0  0  0  0
   49.2370   32.1600   43.0160 F   0  0  0  0  0  0  0  0  0  0  0  0
   47.5400   30.7360   42.3930 F   0  0  0  0  0  0  0  0  0  0  0  0
   45.1680   31.5570   48.3640 C   0  0  0  0  0  0  0  0  0  0  0  0
   44.9790   30.1490   47.9960 C   0  0  0  0  0  0  0  0  0  0  0  0
   44.9280   29.5790   46.7640 C   0  0  0  0  0  0  0  0  0  0  0  0
   44.7330   28.2330   46.9550 C   0  0  0  0  0  0  0  0  0  0  0  0
   44.6700   28.0070   48.2640 N   0  0  0  0  0  0  0  0  0  0  0  0
   44.8210   29.1760   48.8790 N   0  0  0  0  0  0  0  0  0  0  0  0
   44.4740   26.7230   48.9540 C   0  0  0  0  0  0  0  0  0  0  0  0
   44.1380   26.9450   50.2930 F   0  0  0  0  0  0  0  0  0  0  0  0
   45.5990   25.9460   48.8080 F   0  0  0  0  0  0  0  0  0  0  0  0
   43.3960   26.0820   48.3730 F   0  0  0  0  0  0  0  0  0  0  0  0
   44.6160   27.2350   45.9000 C   0  0  0  0  0  0  0  0  0  0  0  0
   43.5310   26.9530   45.3190 O   0  0  0  0  0  0  0  0  0  0  0  0
   46.7618   32.9530   48.5152 H   0  0  0  0  0  0  0  0  0  0  0  0
   47.2165   31.2765   47.9552 H   0  0  0  0  0  0  0  0  0  0  0  0
   45.2352   34.6914   44.3090 H   0  0  0  0  0  0  0  0  0  0  0  0
   44.8095   32.6101   41.6832 H   0  0  0  0  0  0  0  0  0  0  0  0
   45.3223   33.7570   39.3362 H   0  0  0  0  0  0  0  0  0  0  0  0
   47.5336   35.0961   39.7284 H   0  0  0  0  0  0  0  0  0  0  0  0
   45.1262   31.6457   49.4596 H   0  0  0  0  0  0  0  0  0  0  0  0
   44.3692   32.1420   47.8849 H   0  0  0  0  0  0  0  0  0  0  0  0
   45.0244   30.0965   45.7981 H   0  0  0  0  0  0  0  0  0  0  0  0
   45.5245   26.6966   45.5921 H   0  0  0  0  0  0  0  0  0  0  0  0
  1 17  1  0
  2  7  2  0
  3  4  2  0
  3  2  1  0
  4  5  1  0
  5  6  2  0
  6  1  1  0
  7  6  1  0
  8  3  1  0
  9  8  1  0
 10 11  1  0
 10  9  2  0
 11 12  1  0
 12  8  2  0
 13 14  1  0
 13  4  1  0
 15 13  1  0
 16 13  1  0
 18 17  1  0
 18 22  2  0
 19 20  2  0
 19 18  1  0
 20 21  1  0
 21 22  1  0
 21 23  1  0
 23 24  1  0
 25 23  1  0
 26 23  1  0
 27 20  1  0
 28 27  2  0
  1 29  1  0
  1 30  1  0
  2 31  1  0
  9 32  1  0
 10 33  1  0
 11 34  1  0
 17 35  1  0
 17 36  1  0
 19 37  1  0
 27 38  1  0
M  ISO  8  29   8  30   8  31  14  32  14  33  14  34   9  35   8  36   8
M  ISO  2  37  14  38   6
M  END
>  <minimizedAffinity>  (1) 
-4.85733557

>  <minimizedRMSD>  (1) 
2.79934597

$$$$
