
     RDKit          3D

 27 28  0  0  0  0  0  0  0  0999 V2000
   43.7720   35.5190   41.5750 C   0  0  0  0  0  0  0  0  0  0  0  0
   44.2810   35.8180   43.9220 C   0  0  0  0  0  0  0  0  0  0  0  0
   44.3350   34.9620   42.8060 C   0  0  0  0  0  0  0  0  0  0  0  0
   44.9030   33.7080   42.9900 C   0  0  0  0  0  0  0  0  0  0  0  0
   45.3670   33.3870   44.2160 N   0  0  0  0  0  0  0  0  0  0  0  0
   45.3020   34.2320   45.2710 C   0  0  0  0  0  0  0  0  0  0  0  0
   44.7580   35.4650   45.1500 N   0  0  0  0  0  0  0  0  0  0  0  0
   42.5640   34.9230   41.1120 N   0  0  0  0  0  0  0  0  0  0  0  0
   41.3920   35.7200   41.3060 C   0  0  0  0  0  0  0  0  0  0  0  0
   40.2680   35.2650   40.3960 C   0  0  0  0  0  0  0  0  0  0  0  0
   40.6330   35.3890   39.0220 N   0  0  0  0  0  0  0  0  0  0  0  0
   42.0680   35.2990   38.8240 C   0  0  0  0  0  0  0  0  0  0  0  0
   42.6090   34.2860   39.8380 C   0  0  0  0  0  0  0  0  0  0  0  0
   43.5745   36.5870   41.7491 H   0  0  0  0  0  0  0  0  0  0  0  0
   44.5186   35.3193   40.7922 H   0  0  0  0  0  0  0  0  0  0  0  0
   43.8344   36.8156   43.7983 H   0  0  0  0  0  0  0  0  0  0  0  0
   44.9730   32.9936   42.1565 H   0  0  0  0  0  0  0  0  0  0  0  0
   45.6989   33.9105   46.2452 H   0  0  0  0  0  0  0  0  0  0  0  0
   41.0657   35.6308   42.3527 H   0  0  0  0  0  0  0  0  0  0  0  0
   41.6357   36.7654   41.0657 H   0  0  0  0  0  0  0  0  0  0  0  0
   40.0360   34.2116   40.6118 H   0  0  0  0  0  0  0  0  0  0  0  0
   39.3905   35.9018   40.5817 H   0  0  0  0  0  0  0  0  0  0  0  0
   40.1769   34.6351   38.4886 H   0  0  0  0  0  0  0  0  0  0  0  0
   42.2855   34.9591   37.8007 H   0  0  0  0  0  0  0  0  0  0  0  0
   42.5416   36.2815   38.9668 H   0  0  0  0  0  0  0  0  0  0  0  0
   41.9822   33.3821   39.8431 H   0  0  0  0  0  0  0  0  0  0  0  0
   43.6341   33.9784   39.5838 H   0  0  0  0  0  0  0  0  0  0  0  0
  1  3  1  0
  2  7  2  0
  3  4  2  0
  3  2  1  0
  4  5  1  0
  5  6  2  0
  7  6  1  0
  8  9  1  0
  8  1  1  0
 10  9  1  0
 11 10  1  0
 12 11  1  0
 12 13  1  0
 13  8  1  0
  1 14  1  0
  1 15  1  0
  2 16  1  0
  4 17  1  0
  6 18  1  0
  9 19  1  0
  9 20  1  0
 10 21  1  0
 10 22  1  0
 11 23  1  0
 12 24  1  0
 12 25  1  0
 13 26  1  0
 13 27  1  0
M  ISO  8  14   8  15   8  16  14  17  14  18  14  19  13  20  13  21  13
M  ISO  6  22  13  23   5  24  13  25  13  26  13  27  13
M  END
>  <minimizedAffinity>  (1) 
-3.96721196

>  <minimizedRMSD>  (1) 
1.3706944

$$$$
