
     RDKit          3D

 33 35  0  0  0  0  0  0  0  0999 V2000
   43.9100   35.4540   42.7620 C   0  0  0  0  0  0  0  0  0  0  0  0
   43.2730   35.1090   41.5650 C   0  0  0  0  0  0  0  0  0  0  0  0
   44.0640   34.5550   40.5700 C   0  0  0  0  0  0  0  0  0  0  0  0
   45.3810   34.3800   40.8030 N   0  0  0  0  0  0  0  0  0  0  0  0
   45.9500   34.7300   41.9770 C   0  0  0  0  0  0  0  0  0  0  0  0
   45.2400   35.2690   42.9790 N   0  0  0  0  0  0  0  0  0  0  0  0
   46.7220   31.9670   42.8570 Cl  0  0  0  0  0  0  0  0  0  0  0  0
   47.8570   33.2750   42.5520 C   0  0  0  0  0  0  0  0  0  0  0  0
   47.3830   34.5080   42.1500 C   0  0  0  0  0  0  0  0  0  0  0  0
   48.2790   35.5320   41.9110 C   0  0  0  0  0  0  0  0  0  0  0  0
   49.6330   35.3220   42.0750 C   0  0  0  0  0  0  0  0  0  0  0  0
   50.0980   34.0700   42.4830 C   0  0  0  0  0  0  0  0  0  0  0  0
   49.2010   33.0240   42.7270 C   0  0  0  0  0  0  0  0  0  0  0  0
   41.8380   35.3730   41.4970 C   0  0  0  0  0  0  0  0  0  0  0  0
   41.2250   34.3910   40.6070 N   0  0  0  0  0  0  0  0  0  0  0  0
   41.0640   33.1320   41.0230 C   0  0  0  0  0  0  0  0  0  0  0  0
   40.4790   32.2480   40.1360 C   0  0  0  0  0  0  0  0  0  0  0  0
   40.0750   32.6270   38.8750 C   0  0  0  0  0  0  0  0  0  0  0  0
   39.5510   31.7840   38.1110 O   0  0  0  0  0  0  0  0  0  0  0  0
   40.2650   33.9070   38.5110 N   0  0  0  0  0  0  0  0  0  0  0  0
   40.8350   34.7940   39.3630 C   0  0  0  0  0  0  0  0  0  0  0  0
   40.9800   35.9820   38.9500 O   0  0  0  0  0  0  0  0  0  0  0  0
   43.3054   35.8967   43.5673 H   0  0  0  0  0  0  0  0  0  0  0  0
   43.6241   34.2626   39.6051 H   0  0  0  0  0  0  0  0  0  0  0  0
   47.9120   36.5177   41.5890 H   0  0  0  0  0  0  0  0  0  0  0  0
   50.3445   36.1390   41.8848 H   0  0  0  0  0  0  0  0  0  0  0  0
   51.1777   33.9048   42.6136 H   0  0  0  0  0  0  0  0  0  0  0  0
   49.5568   32.0339   43.0480 H   0  0  0  0  0  0  0  0  0  0  0  0
   41.3977   35.2884   42.5015 H   0  0  0  0  0  0  0  0  0  0  0  0
   41.6607   36.3890   41.1145 H   0  0  0  0  0  0  0  0  0  0  0  0
   41.3826   32.8130   42.0264 H   0  0  0  0  0  0  0  0  0  0  0  0
   40.3307   31.2038   40.4486 H   0  0  0  0  0  0  0  0  0  0  0  0
   39.9739   34.2177   37.5731 H   0  0  0  0  0  0  0  0  0  0  0  0
  1  6  2  0
  2  1  1  0
  3  4  1  0
  3  2  2  0
  4  5  2  0
  5  9  1  0
  5  6  1  0
  8 13  2  0
  8  7  1  0
  9  8  1  0
 10 11  1  0
 10  9  2  0
 11 12  2  0
 12 13  1  0
 14  2  1  0
 15 16  1  0
 15 14  1  0
 17 16  2  0
 18 17  1  0
 19 18  2  0
 20 18  1  0
 20 21  1  0
 21 15  1  0
 22 21  2  0
  1 23  1  0
  3 24  1  0
 10 25  1  0
 11 26  1  0
 12 27  1  0
 13 28  1  0
 14 29  1  0
 14 30  1  0
 16 31  1  0
 17 32  1  0
 20 33  1  0
M  ISO  8  23  14  24  14  25  14  26  14  27  14  28  14  29   8  30   8
M  ISO  3  31  14  32  14  33   9
M  END
>  <minimizedAffinity>  (1) 
-5.72464037

>  <minimizedRMSD>  (1) 
4.26802349

$$$$
