
     RDKit          3D

 29 30  0  0  0  0  0  0  0  0999 V2000
   44.1860   35.8360   43.0400 C   0  0  0  0  0  0  0  0  0  0  0  0
   44.2540   34.7660   42.1500 C   0  0  0  0  0  0  0  0  0  0  0  0
   44.6910   33.5650   42.6650 C   0  0  0  0  0  0  0  0  0  0  0  0
   45.0220   33.4770   43.9590 N   0  0  0  0  0  0  0  0  0  0  0  0
   44.9390   34.5530   44.7920 C   0  0  0  0  0  0  0  0  0  0  0  0
   44.5190   35.7580   44.3530 N   0  0  0  0  0  0  0  0  0  0  0  0
   43.8520   35.0480   40.7700 C   0  0  0  0  0  0  0  0  0  0  0  0
   42.4320   34.7710   40.6290 N   0  0  0  0  0  0  0  0  0  0  0  0
   41.5380   35.6850   41.0360 C   0  0  0  0  0  0  0  0  0  0  0  0
   40.1940   35.3760   40.8830 C   0  0  0  0  0  0  0  0  0  0  0  0
   39.7960   34.1770   40.3330 C   0  0  0  0  0  0  0  0  0  0  0  0
   38.5700   33.9360   40.2110 O   0  0  0  0  0  0  0  0  0  0  0  0
   40.7240   33.2890   39.9380 N   0  0  0  0  0  0  0  0  0  0  0  0
   42.0480   33.5830   40.0850 C   0  0  0  0  0  0  0  0  0  0  0  0
   42.8800   32.7130   39.6980 O   0  0  0  0  0  0  0  0  0  0  0  0
   45.3020   34.3850   46.1330 O   0  0  0  0  0  0  0  0  0  0  0  0
   44.9280   32.5760   47.9930 O   0  0  0  0  0  0  0  0  0  0  0  0
   45.7900   32.8930   46.7750 P   0  0  0  0  0  0  0  0  0  0  0  0
   47.4070   33.0310   47.2490 O   0  0  0  0  0  0  0  0  0  0  0  0
   45.5910   31.6310   45.6460 O   0  0  0  0  0  0  0  0  0  0  0  0
   43.8402   36.8060   42.6534 H   0  0  0  0  0  0  0  0  0  0  0  0
   44.7676   32.6811   42.0147 H   0  0  0  0  0  0  0  0  0  0  0  0
   44.0472   36.1051   40.5369 H   0  0  0  0  0  0  0  0  0  0  0  0
   44.4264   34.4156   40.0771 H   0  0  0  0  0  0  0  0  0  0  0  0
   41.8581   36.6420   41.4739 H   0  0  0  0  0  0  0  0  0  0  0  0
   39.4327   36.1011   41.2065 H   0  0  0  0  0  0  0  0  0  0  0  0
   40.4368   32.3898   39.5258 H   0  0  0  0  0  0  0  0  0  0  0  0
   47.4619   33.0357   48.2375 H   0  0  0  0  0  0  0  0  0  0  0  0
   45.4562   30.7762   46.1269 H   0  0  0  0  0  0  0  0  0  0  0  0
  1  6  2  0
  2  3  2  0
  2  1  1  0
  3  4  1  0
  4  5  2  0
  5 16  1  0
  6  5  1  0
  7  2  1  0
  8  7  1  0
  8  9  1  0
 10  9  2  0
 11 10  1  0
 12 11  2  0
 13 14  1  0
 13 11  1  0
 14  8  1  0
 15 14  2  0
 16 18  1  0
 18 19  1  0
 18 17  2  0
 20 18  1  0
  1 21  1  0
  3 22  1  0
  7 23  1  0
  7 24  1  0
  9 25  1  0
 10 26  1  0
 13 27  1  0
 19 28  1  0
 20 29  1  0
M  ISO  8  21  14  22  14  23   8  24   8  25  14  26  14  27   9  28   3
M  ISO  1  29   3
M  END
>  <minimizedAffinity>  (1) 
-5.40560627

>  <minimizedRMSD>  (1) 
0.556645811

$$$$
