
     RDKit          3D

 30 32  0  0  0  0  0  0  0  0999 V2000
   43.7690   35.7580   41.5310 C   0  0  0  0  0  0  0  0  0  0  0  0
   42.5260   35.0570   41.2150 N   0  0  0  0  0  0  0  0  0  0  0  0
   41.4430   35.2680   41.9580 C   0  0  0  0  0  0  0  0  0  0  0  0
   40.2950   34.5790   41.6120 C   0  0  0  0  0  0  0  0  0  0  0  0
   40.2590   33.7070   40.5470 C   0  0  0  0  0  0  0  0  0  0  0  0
   39.2000   33.0970   40.2610 O   0  0  0  0  0  0  0  0  0  0  0  0
   41.3880   33.5300   39.8260 N   0  0  0  0  0  0  0  0  0  0  0  0
   42.5230   34.2030   40.1550 C   0  0  0  0  0  0  0  0  0  0  0  0
   43.5400   33.9900   39.4400 O   0  0  0  0  0  0  0  0  0  0  0  0
   44.3650   35.6790   43.8880 C   0  0  0  0  0  0  0  0  0  0  0  0
   44.4310   35.0640   42.6210 C   0  0  0  0  0  0  0  0  0  0  0  0
   45.1180   33.8650   42.5540 C   0  0  0  0  0  0  0  0  0  0  0  0
   45.6750   33.3590   43.6690 N   0  0  0  0  0  0  0  0  0  0  0  0
   45.5890   33.9810   44.8630 C   0  0  0  0  0  0  0  0  0  0  0  0
   44.9390   35.1450   45.0070 N   0  0  0  0  0  0  0  0  0  0  0  0
   46.2340   33.3490   46.0450 C   0  0  0  0  0  0  0  0  0  0  0  0
   45.3730   32.9960   47.1980 C   0  0  0  0  0  0  0  0  0  0  0  0
   45.9070   31.9050   46.3200 C   0  0  0  0  0  0  0  0  0  0  0  0
   43.5445   36.7918   41.8326 H   0  0  0  0  0  0  0  0  0  0  0  0
   44.4233   35.7775   40.6470 H   0  0  0  0  0  0  0  0  0  0  0  0
   41.4599   35.9614   42.8118 H   0  0  0  0  0  0  0  0  0  0  0  0
   39.3821   34.7324   42.2062 H   0  0  0  0  0  0  0  0  0  0  0  0
   41.3890   32.8831   39.0245 H   0  0  0  0  0  0  0  0  0  0  0  0
   43.8261   36.6335   43.9799 H   0  0  0  0  0  0  0  0  0  0  0  0
   45.2080   33.3300   41.5971 H   0  0  0  0  0  0  0  0  0  0  0  0
   47.1600   33.9295   45.9201 H   0  0  0  0  0  0  0  0  0  0  0  0
   45.7553   33.1111   48.2230 H   0  0  0  0  0  0  0  0  0  0  0  0
   44.3701   33.2965   47.5353 H   0  0  0  0  0  0  0  0  0  0  0  0
   45.2306   31.3543   45.6497 H   0  0  0  0  0  0  0  0  0  0  0  0
   46.4909   30.9865   46.4796 H   0  0  0  0  0  0  0  0  0  0  0  0
  1 11  1  0
  2  1  1  0
  2  3  1  0
  4  3  2  0
  5  4  1  0
  6  5  2  0
  7  8  1  0
  7  5  1  0
  8  2  1  0
  9  8  2  0
 10 15  2  0
 11 10  1  0
 12 11  2  0
 12 13  1  0
 13 14  2  0
 14 15  1  0
 14 16  1  0
 16 18  1  0
 16 17  1  0
 18 17  1  0
  1 19  1  0
  1 20  1  0
  3 21  1  0
  4 22  1  0
  7 23  1  0
 10 24  1  0
 12 25  1  0
 16 26  1  0
 17 27  1  0
 17 28  1  0
 18 29  1  0
 18 30  1  0
M  ISO  8  19   8  20   8  21  14  22  14  23   9  24  14  25  14  26  13
M  ISO  4  27  13  28  13  29  13  30  13
M  END
>  <minimizedAffinity>  (1) 
-4.65011024

>  <minimizedRMSD>  (1) 
0.739181876

$$$$
