
     RDKit          3D

 25 26  0  0  0  0  0  0  0  0999 V2000
   43.7470   35.7160   41.3810 C   0  0  0  0  0  0  0  0  0  0  0  0
   42.4550   35.1140   41.0490 N   0  0  0  0  0  0  0  0  0  0  0  0
   41.3910   35.3650   41.8160 C   0  0  0  0  0  0  0  0  0  0  0  0
   40.1950   34.7650   41.4510 C   0  0  0  0  0  0  0  0  0  0  0  0
   40.0990   33.9480   40.3510 C   0  0  0  0  0  0  0  0  0  0  0  0
   38.9950   33.4330   40.0690 O   0  0  0  0  0  0  0  0  0  0  0  0
   41.2060   33.7290   39.6130 N   0  0  0  0  0  0  0  0  0  0  0  0
   42.3910   34.3030   39.9470 C   0  0  0  0  0  0  0  0  0  0  0  0
   43.3680   34.0510   39.2130 O   0  0  0  0  0  0  0  0  0  0  0  0
   44.4250   35.8150   43.7080 C   0  0  0  0  0  0  0  0  0  0  0  0
   44.2890   35.0450   42.5550 C   0  0  0  0  0  0  0  0  0  0  0  0
   44.6820   33.7220   42.6340 C   0  0  0  0  0  0  0  0  0  0  0  0
   45.1710   33.2420   43.8070 N   0  0  0  0  0  0  0  0  0  0  0  0
   45.2800   34.0330   44.8940 C   0  0  0  0  0  0  0  0  0  0  0  0
   44.9180   35.3250   44.8870 N   0  0  0  0  0  0  0  0  0  0  0  0
   45.8190   33.4060   46.0960 C   0  0  0  0  0  0  0  0  0  0  0  0
   45.1150   33.3730   47.1370 O   0  0  0  0  0  0  0  0  0  0  0  0
   43.6120   36.7863   41.5961 H   0  0  0  0  0  0  0  0  0  0  0  0
   44.4399   35.6055   40.5338 H   0  0  0  0  0  0  0  0  0  0  0  0
   41.4601   36.0186   42.6981 H   0  0  0  0  0  0  0  0  0  0  0  0
   39.2975   34.9487   42.0599 H   0  0  0  0  0  0  0  0  0  0  0  0
   41.1524   33.1185   38.7852 H   0  0  0  0  0  0  0  0  0  0  0  0
   44.1204   36.8713   43.6688 H   0  0  0  0  0  0  0  0  0  0  0  0
   44.5996   33.0646   41.7559 H   0  0  0  0  0  0  0  0  0  0  0  0
   46.8280   32.9679   46.0915 H   0  0  0  0  0  0  0  0  0  0  0  0
  1 11  1  0
  2  1  1  0
  2  3  1  0
  4  3  2  0
  5  4  1  0
  6  5  2  0
  7  8  1  0
  7  5  1  0
  8  2  1  0
  9  8  2  0
 10 15  2  0
 11 12  2  0
 11 10  1  0
 12 13  1  0
 13 14  2  0
 14 16  1  0
 15 14  1  0
 16 17  2  0
  1 18  1  0
  1 19  1  0
  3 20  1  0
  4 21  1  0
  7 22  1  0
 10 23  1  0
 12 24  1  0
 16 25  1  0
M  ISO  8  18   8  19   8  20  14  21  14  22   9  23  14  24  14  25   6
M  END
>  <minimizedAffinity>  (1) 
-4.58258009

>  <minimizedRMSD>  (1) 
0.660730064

$$$$
