
     RDKit          3D

 37 39  0  0  1  0  0  0  0  0999 V2000
   44.5180   35.8520   43.0450 C   0  0  0  0  0  0  0  0  0  0  0  0
   44.2350   34.8210   42.1300 C   0  0  0  0  0  0  0  0  0  0  0  0
   44.5300   33.5360   42.5320 C   0  0  0  0  0  0  0  0  0  0  0  0
   45.0650   33.3160   43.7500 N   0  0  0  0  0  0  0  0  0  0  0  0
   45.3160   34.3590   44.5850 C   0  0  0  0  0  0  0  0  0  0  0  0
   45.0550   35.6460   44.2680 N   0  0  0  0  0  0  0  0  0  0  0  0
   43.6620   35.2180   40.8370 C   0  0  0  0  0  0  0  0  0  0  0  0
   42.2940   34.7530   40.7900 N   0  0  0  0  0  0  0  0  0  0  0  0
   41.3590   35.2940   41.5540 C   0  0  0  0  0  0  0  0  0  0  0  0
   40.0760   34.7940   41.4540 C   0  0  0  0  0  0  0  0  0  0  0  0
   39.7540   33.7680   40.5950 C   0  0  0  0  0  0  0  0  0  0  0  0
   38.5780   33.3620   40.5510 O   0  0  0  0  0  0  0  0  0  0  0  0
   40.7340   33.2370   39.8260 N   0  0  0  0  0  0  0  0  0  0  0  0
   41.9900   33.7240   39.9220 C   0  0  0  0  0  0  0  0  0  0  0  0
   42.8530   33.1780   39.1720 O   0  0  0  0  0  0  0  0  0  0  0  0
   45.8780   34.1420   45.8520 O   0  0  0  0  0  0  0  0  0  0  0  0
   44.9600   33.0360   47.7440 N   0  0  0  0  0  0  0  0  0  0  0  0
   45.5570   32.8820   46.4490 C   0  0  2  0  0  0  0  0  0  0  0  0
   46.8970   32.1690   46.6640 C   0  0  0  0  0  0  0  0  0  0  0  0
   47.4480   32.5510   47.8930 O   0  0  0  0  0  0  0  0  0  0  0  0
   46.7720   31.7680   48.8490 C   0  0  0  0  0  0  0  0  0  0  0  0
   45.2920   31.8610   48.5320 C   0  0  0  0  0  0  0  0  0  0  0  0
   44.2888   36.8859   42.7475 H   0  0  0  0  0  0  0  0  0  0  0  0
   44.3289   32.6896   41.8589 H   0  0  0  0  0  0  0  0  0  0  0  0
   43.6870   36.3133   40.7387 H   0  0  0  0  0  0  0  0  0  0  0  0
   44.2423   34.7788   40.0122 H   0  0  0  0  0  0  0  0  0  0  0  0
   41.5961   36.1153   42.2462 H   0  0  0  0  0  0  0  0  0  0  0  0
   39.2849   35.2301   42.0817 H   0  0  0  0  0  0  0  0  0  0  0  0
   40.5233   32.4684   39.1735 H   0  0  0  0  0  0  0  0  0  0  0  0
   43.9375   33.1171   47.6505 H   0  0  0  0  0  0  0  0  0  0  0  0
   44.8512   32.3410   45.8015 H   0  0  0  0  0  0  0  0  0  0  0  0
   46.7361   31.0808   46.6588 H   0  0  0  0  0  0  0  0  0  0  0  0
   47.5888   32.4464   45.8550 H   0  0  0  0  0  0  0  0  0  0  0  0
   47.1069   30.7221   48.7857 H   0  0  0  0  0  0  0  0  0  0  0  0
   46.9785   32.1275   49.8679 H   0  0  0  0  0  0  0  0  0  0  0  0
   44.7314   31.9015   49.4776 H   0  0  0  0  0  0  0  0  0  0  0  0
   45.0233   30.9754   47.9374 H   0  0  0  0  0  0  0  0  0  0  0  0
  1  6  2  0
  2  3  2  0
  2  1  1  0
  3  4  1  0
  4  5  2  0
  5 16  1  0
  6  5  1  0
  7  2  1  0
  8  7  1  0
  8  9  1  0
 10  9  2  0
 11 10  1  0
 12 11  2  0
 13 14  1  0
 13 11  1  0
 14  8  1  0
 15 14  2  0
 17 22  1  0
 18 16  1  0
 18 19  1  0
 18 17  1  0
 19 20  1  0
 20 21  1  0
 22 21  1  0
  1 23  1  0
  3 24  1  0
  7 25  1  0
  7 26  1  0
  9 27  1  0
 10 28  1  0
 13 29  1  0
 17 30  1  0
 18 31  1  6
 19 32  1  0
 19 33  1  0
 21 34  1  0
 21 35  1  0
 22 36  1  0
 22 37  1  0
M  ISO  8  23  14  24  14  25   8  26   8  27  14  28  14  29   9  30   5
M  ISO  7  31  13  32  13  33  13  34  13  35  13  36  13  37  13
M  END
>  <minimizedAffinity>  (1) 
-5.96292543

>  <minimizedRMSD>  (1) 
1.41071367

$$$$
