
     RDKit          3D

 34 36  0  0  0  0  0  0  0  0999 V2000
   44.6120   35.6130   45.0170 C   0  0  0  0  0  0  0  0  0  0  0  0
   45.3870   35.1300   43.9480 C   0  0  0  0  0  0  0  0  0  0  0  0
   46.0650   33.9440   44.1620 C   0  0  0  0  0  0  0  0  0  0  0  0
   45.9650   33.3120   45.3470 N   0  0  0  0  0  0  0  0  0  0  0  0
   45.1950   33.8390   46.3410 C   0  0  0  0  0  0  0  0  0  0  0  0
   44.5020   34.9930   46.2090 N   0  0  0  0  0  0  0  0  0  0  0  0
   45.4080   35.9270   42.7150 C   0  0  0  0  0  0  0  0  0  0  0  0
   44.6060   35.2480   41.7230 N   0  0  0  0  0  0  0  0  0  0  0  0
   43.2850   35.3420   41.7310 C   0  0  0  0  0  0  0  0  0  0  0  0
   42.5820   34.6660   40.7540 C   0  0  0  0  0  0  0  0  0  0  0  0
   43.2150   33.9100   39.7890 C   0  0  0  0  0  0  0  0  0  0  0  0
   42.5170   33.3280   38.9380 O   0  0  0  0  0  0  0  0  0  0  0  0
   44.5620   33.8330   39.8050 N   0  0  0  0  0  0  0  0  0  0  0  0
   45.2520   34.4970   40.7650 C   0  0  0  0  0  0  0  0  0  0  0  0
   46.5120   34.3830   40.7250 O   0  0  0  0  0  0  0  0  0  0  0  0
   45.0850   33.1950   47.5780 O   0  0  0  0  0  0  0  0  0  0  0  0
   45.9200   32.0960   47.7660 C   0  0  0  0  0  0  0  0  0  0  0  0
   45.5020   30.7940   47.5320 C   0  0  0  0  0  0  0  0  0  0  0  0
   46.3650   29.7310   47.7310 C   0  0  0  0  0  0  0  0  0  0  0  0
   47.6580   29.9460   48.1670 C   0  0  0  0  0  0  0  0  0  0  0  0
   48.1010   31.2350   48.4090 C   0  0  0  0  0  0  0  0  0  0  0  0
   47.2170   32.2860   48.2010 C   0  0  0  0  0  0  0  0  0  0  0  0
   44.0618   36.5544   44.8719 H   0  0  0  0  0  0  0  0  0  0  0  0
   46.6874   33.5158   43.3625 H   0  0  0  0  0  0  0  0  0  0  0  0
   44.9909   36.9259   42.9105 H   0  0  0  0  0  0  0  0  0  0  0  0
   46.4410   36.0409   42.3545 H   0  0  0  0  0  0  0  0  0  0  0  0
   42.7639   35.9404   42.4928 H   0  0  0  0  0  0  0  0  0  0  0  0
   41.4840   34.7321   40.7446 H   0  0  0  0  0  0  0  0  0  0  0  0
   45.0604   33.2762   39.0961 H   0  0  0  0  0  0  0  0  0  0  0  0
   44.4753   30.6051   47.1852 H   0  0  0  0  0  0  0  0  0  0  0  0
   46.0181   28.7047   47.5402 H   0  0  0  0  0  0  0  0  0  0  0  0
   48.3354   29.0933   48.3218 H   0  0  0  0  0  0  0  0  0  0  0  0
   49.1275   31.4223   48.7573 H   0  0  0  0  0  0  0  0  0  0  0  0
   47.5644   33.3123   48.3906 H   0  0  0  0  0  0  0  0  0  0  0  0
  1  6  2  0
  2  3  2  0
  2  1  1  0
  3  4  1  0
  4  5  2  0
  5 16  1  0
  6  5  1  0
  7  2  1  0
  8  9  1  0
  8  7  1  0
 10  9  2  0
 11 13  1  0
 11 10  1  0
 12 11  2  0
 13 14  1  0
 14  8  1  0
 15 14  2  0
 16 17  1  0
 17 22  2  0
 18 19  2  0
 18 17  1  0
 19 20  1  0
 20 21  2  0
 22 21  1  0
  1 23  1  0
  3 24  1  0
  7 25  1  0
  7 26  1  0
  9 27  1  0
 10 28  1  0
 13 29  1  0
 18 30  1  0
 19 31  1  0
 20 32  1  0
 21 33  1  0
 22 34  1  0
M  ISO  8  23  14  24  14  25   8  26   8  27  14  28  14  29   9  30  14
M  ISO  4  31  14  32  14  33  14  34  14
M  END
>  <minimizedAffinity>  (1) 
-5.59999847

>  <minimizedRMSD>  (1) 
2.08725286

$$$$
