
     RDKit          3D

 32 34  0  0  0  0  0  0  0  0999 V2000
   44.4030   35.7950   43.7760 C   0  0  0  0  0  0  0  0  0  0  0  0
   44.3190   35.0870   42.5730 C   0  0  0  0  0  0  0  0  0  0  0  0
   44.8650   33.8320   42.5970 C   0  0  0  0  0  0  0  0  0  0  0  0
   45.4400   33.3300   43.7140 N   0  0  0  0  0  0  0  0  0  0  0  0
   45.4870   34.0760   44.8510 C   0  0  0  0  0  0  0  0  0  0  0  0
   44.9700   35.3270   44.9130 N   0  0  0  0  0  0  0  0  0  0  0  0
   43.6790   35.7280   41.4420 C   0  0  0  0  0  0  0  0  0  0  0  0
   42.4230   35.0400   41.1630 N   0  0  0  0  0  0  0  0  0  0  0  0
   41.3580   35.2430   41.9390 C   0  0  0  0  0  0  0  0  0  0  0  0
   40.2040   34.5650   41.6220 C   0  0  0  0  0  0  0  0  0  0  0  0
   40.1320   33.7000   40.5410 C   0  0  0  0  0  0  0  0  0  0  0  0
   39.0690   33.1100   40.2930 O   0  0  0  0  0  0  0  0  0  0  0  0
   41.2330   33.5260   39.7830 N   0  0  0  0  0  0  0  0  0  0  0  0
   42.3820   34.1870   40.0800 C   0  0  0  0  0  0  0  0  0  0  0  0
   43.3700   33.9800   39.3370 O   0  0  0  0  0  0  0  0  0  0  0  0
   46.0610   33.6190   46.0250 O   0  0  0  0  0  0  0  0  0  0  0  0
   45.7610   32.4510   46.6650 C   0  0  0  0  0  0  0  0  0  0  0  0
   45.2120   32.5920   47.9430 C   0  0  0  0  0  0  0  0  0  0  0  0
   44.8970   31.4160   48.6200 C   0  0  0  0  0  0  0  0  0  0  0  0
   45.1060   30.2220   48.0780 N   0  0  0  0  0  0  0  0  0  0  0  0
   45.6430   30.0960   46.8310 C   0  0  0  0  0  0  0  0  0  0  0  0
   45.9600   31.2140   46.1490 N   0  0  0  0  0  0  0  0  0  0  0  0
   43.9763   36.8086   43.8004 H   0  0  0  0  0  0  0  0  0  0  0  0
   44.8355   33.2166   41.6858 H   0  0  0  0  0  0  0  0  0  0  0  0
   43.4782   36.7831   41.6795 H   0  0  0  0  0  0  0  0  0  0  0  0
   44.3368   35.6785   40.5618 H   0  0  0  0  0  0  0  0  0  0  0  0
   41.4006   35.9265   42.7998 H   0  0  0  0  0  0  0  0  0  0  0  0
   39.3102   34.7138   42.2457 H   0  0  0  0  0  0  0  0  0  0  0  0
   41.2029   32.8886   38.9745 H   0  0  0  0  0  0  0  0  0  0  0  0
   45.0376   33.5813   48.3912 H   0  0  0  0  0  0  0  0  0  0  0  0
   44.4641   31.4781   49.6293 H   0  0  0  0  0  0  0  0  0  0  0  0
   45.8138   29.1024   46.3910 H   0  0  0  0  0  0  0  0  0  0  0  0
  1  6  2  0
  2  3  2  0
  2  1  1  0
  3  4  1  0
  4  5  2  0
  5  6  1  0
  5 16  1  0
  7  2  1  0
  8  7  1  0
  8  9  1  0
 10  9  2  0
 11 10  1  0
 12 11  2  0
 13 14  1  0
 13 11  1  0
 14  8  1  0
 15 14  2  0
 16 17  1  0
 17 18  2  0
 18 19  1  0
 20 19  2  0
 21 20  1  0
 22 17  1  0
 22 21  2  0
  1 23  1  0
  3 24  1  0
  7 25  1  0
  7 26  1  0
  9 27  1  0
 10 28  1  0
 13 29  1  0
 18 30  1  0
 19 31  1  0
 21 32  1  0
M  ISO  8  23  14  24  14  25   8  26   8  27  14  28  14  29   9  30  14
M  ISO  2  31  14  32  14
M  END
>  <minimizedAffinity>  (1) 
-5.55613518

>  <minimizedRMSD>  (1) 
0.771376729

$$$$
