
     RDKit          3D

 27 28  0  0  0  0  0  0  0  0999 V2000
   43.8580   35.5690   41.1470 C   0  0  0  0  0  0  0  0  0  0  0  0
   42.5210   35.0920   40.8780 N   0  0  0  0  0  0  0  0  0  0  0  0
   41.4970   35.4690   41.6270 C   0  0  0  0  0  0  0  0  0  0  0  0
   40.2360   34.9770   41.3230 C   0  0  0  0  0  0  0  0  0  0  0  0
   40.0450   34.1180   40.2720 C   0  0  0  0  0  0  0  0  0  0  0  0
   38.8950   33.6840   40.0140 O   0  0  0  0  0  0  0  0  0  0  0  0
   41.1040   33.7470   39.5240 N   0  0  0  0  0  0  0  0  0  0  0  0
   42.3360   34.2270   39.8180 C   0  0  0  0  0  0  0  0  0  0  0  0
   43.2860   33.8400   39.0780 O   0  0  0  0  0  0  0  0  0  0  0  0
   44.4890   35.8470   43.5000 C   0  0  0  0  0  0  0  0  0  0  0  0
   44.3100   34.9760   42.4070 C   0  0  0  0  0  0  0  0  0  0  0  0
   44.5830   33.6390   42.6330 C   0  0  0  0  0  0  0  0  0  0  0  0
   44.9980   33.2320   43.8500 N   0  0  0  0  0  0  0  0  0  0  0  0
   45.1510   34.1270   44.8590 C   0  0  0  0  0  0  0  0  0  0  0  0
   44.9040   35.4540   44.7230 N   0  0  0  0  0  0  0  0  0  0  0  0
   45.5830   33.7280   46.1300 O   0  0  0  0  0  0  0  0  0  0  0  0
   46.6700   32.7940   46.0710 C   0  0  0  0  0  0  0  0  0  0  0  0
   46.0990   31.5230   46.0910 F   0  0  0  0  0  0  0  0  0  0  0  0
   47.4590   32.9690   44.9730 F   0  0  0  0  0  0  0  0  0  0  0  0
   47.3690   32.9020   47.2590 F   0  0  0  0  0  0  0  0  0  0  0  0
   43.8520   36.6657   41.2325 H   0  0  0  0  0  0  0  0  0  0  0  0
   44.5351   35.2841   40.3283 H   0  0  0  0  0  0  0  0  0  0  0  0
   41.6427   36.1576   42.4723 H   0  0  0  0  0  0  0  0  0  0  0  0
   39.3747   35.2814   41.9358 H   0  0  0  0  0  0  0  0  0  0  0  0
   40.9764   33.1010   38.7320 H   0  0  0  0  0  0  0  0  0  0  0  0
   44.2770   36.9155   43.3470 H   0  0  0  0  0  0  0  0  0  0  0  0
   44.4616   32.9078   41.8202 H   0  0  0  0  0  0  0  0  0  0  0  0
  1 11  1  0
  2  1  1  0
  2  3  1  0
  4  3  2  0
  5  4  1  0
  6  5  2  0
  7  8  1  0
  7  5  1  0
  8  2  1  0
  9  8  2  0
 10 15  2  0
 11 12  2  0
 11 10  1  0
 12 13  1  0
 13 14  2  0
 14 16  1  0
 15 14  1  0
 17 18  1  0
 17 16  1  0
 17 20  1  0
 19 17  1  0
  1 21  1  0
  1 22  1  0
  3 23  1  0
  4 24  1  0
  7 25  1  0
 10 26  1  0
 12 27  1  0
M  ISO  7  21   8  22   8  23  14  24  14  25   9  26  14  27  14
M  END
>  <minimizedAffinity>  (1) 
-5.0764184

>  <minimizedRMSD>  (1) 
1.00902069

$$$$
