
     RDKit          3D

 32 34  0  0  1  0  0  0  0  0999 V2000
   47.2710   34.5650   42.5930 N   0  0  0  0  0  0  0  0  0  0  0  0
   48.6780   34.2440   42.6190 C   0  0  0  0  0  0  0  0  0  0  0  0
   49.1600   35.2480   41.5940 C   0  0  0  0  0  0  0  0  0  0  0  0
   48.2240   34.8550   40.4460 C   0  0  0  0  0  0  0  0  0  0  0  0
   46.9260   34.7010   41.1940 C   0  0  1  0  0  0  0  0  0  0  0  0
   44.4990   35.8470   44.7020 C   0  0  0  0  0  0  0  0  0  0  0  0
   45.3790   35.7580   43.6270 C   0  0  0  0  0  0  0  0  0  0  0  0
   46.3380   34.7350   43.6340 C   0  0  0  0  0  0  0  0  0  0  0  0
   46.3550   33.8860   44.6910 N   0  0  0  0  0  0  0  0  0  0  0  0
   45.4960   33.9840   45.7250 C   0  0  0  0  0  0  0  0  0  0  0  0
   44.5610   34.9740   45.7280 N   0  0  0  0  0  0  0  0  0  0  0  0
   44.1630   35.0800   40.6510 F   0  0  0  0  0  0  0  0  0  0  0  0
   44.6900   33.8340   40.4160 C   0  0  0  0  0  0  0  0  0  0  0  0
   46.0330   33.6640   40.6840 C   0  0  0  0  0  0  0  0  0  0  0  0
   46.5080   32.3950   40.4300 C   0  0  0  0  0  0  0  0  0  0  0  0
   45.6930   31.3920   39.9490 C   0  0  0  0  0  0  0  0  0  0  0  0
   44.3400   31.6220   39.6960 C   0  0  0  0  0  0  0  0  0  0  0  0
   43.8240   32.8960   39.9420 C   0  0  0  0  0  0  0  0  0  0  0  0
   49.1238   34.4173   43.6096 H   0  0  0  0  0  0  0  0  0  0  0  0
   48.9308   33.1936   42.4123 H   0  0  0  0  0  0  0  0  0  0  0  0
   49.0022   36.2859   41.9224 H   0  0  0  0  0  0  0  0  0  0  0  0
   50.2360   35.2242   41.3667 H   0  0  0  0  0  0  0  0  0  0  0  0
   48.5348   33.9119   39.9728 H   0  0  0  0  0  0  0  0  0  0  0  0
   48.1919   35.5730   39.6132 H   0  0  0  0  0  0  0  0  0  0  0  0
   46.3035   35.5948   41.0402 H   0  0  0  0  0  0  0  0  0  0  0  0
   43.7400   36.6431   44.7148 H   0  0  0  0  0  0  0  0  0  0  0  0
   45.3234   36.4726   42.7926 H   0  0  0  0  0  0  0  0  0  0  0  0
   45.5498   33.2699   46.5599 H   0  0  0  0  0  0  0  0  0  0  0  0
   47.5696   32.1758   40.6167 H   0  0  0  0  0  0  0  0  0  0  0  0
   46.1163   30.3942   39.7616 H   0  0  0  0  0  0  0  0  0  0  0  0
   43.6949   30.8182   39.3116 H   0  0  0  0  0  0  0  0  0  0  0  0
   42.7649   33.1315   39.7609 H   0  0  0  0  0  0  0  0  0  0  0  0
  1  2  1  0
  1  8  1  0
  3  2  1  0
  4  5  1  0
  4  3  1  0
  5  1  1  0
  6 11  2  0
  7  8  2  0
  7  6  1  0
  8  9  1  0
  9 10  2  0
 10 11  1  0
 13 12  1  0
 13 14  2  0
 14  5  1  0
 15 14  1  0
 16 15  2  0
 17 18  2  0
 17 16  1  0
 18 13  1  0
  2 19  1  0
  2 20  1  0
  3 21  1  0
  3 22  1  0
  4 23  1  0
  4 24  1  0
  5 25  1  1
  6 26  1  0
  7 27  1  0
 10 28  1  0
 15 29  1  0
 16 30  1  0
 17 31  1  0
 18 32  1  0
M  ISO  8  19  13  20  13  21  13  22  13  23  13  24  13  25  13  26  14
M  ISO  6  27  14  28  14  29  14  30  14  31  14  32  14
M  END
>  <minimizedAffinity>  (1) 
-5.0026412

>  <minimizedRMSD>  (1) 
1.31397593

$$$$
