
     RDKit          3D

 45 48  0  0  1  0  0  0  0  0999 V2000
   47.0710   34.3270   42.5210 N   0  0  0  0  0  0  0  0  0  0  0  0
   48.4020   33.7900   42.4650 C   0  0  0  0  0  0  0  0  0  0  0  0
   48.9850   34.7620   41.4510 C   0  0  0  0  0  0  0  0  0  0  0  0
   47.9440   34.5780   40.3380 C   0  0  0  0  0  0  0  0  0  0  0  0
   46.6830   34.5860   41.1290 C   0  0  1  0  0  0  0  0  0  0  0  0
   43.9890   35.4110   40.7930 F   0  0  0  0  0  0  0  0  0  0  0  0
   44.2990   34.1040   40.4680 C   0  0  0  0  0  0  0  0  0  0  0  0
   45.6010   33.7180   40.6530 C   0  0  0  0  0  0  0  0  0  0  0  0
   45.8750   32.4010   40.3250 C   0  0  0  0  0  0  0  0  0  0  0  0
   44.8900   31.5610   39.8480 C   0  0  0  0  0  0  0  0  0  0  0  0
   43.5900   32.0080   39.6810 C   0  0  0  0  0  0  0  0  0  0  0  0
   43.2820   33.3180   39.9990 C   0  0  0  0  0  0  0  0  0  0  0  0
   41.9590   33.8960   39.8660 C   0  0  0  0  0  0  0  0  0  0  0  0
   41.3550   34.3040   41.2180 C   0  0  0  0  0  0  0  0  0  0  0  0
   40.0420   34.8810   40.7140 C   0  0  0  0  0  0  0  0  0  0  0  0
   40.5160   35.7940   39.6020 C   0  0  0  0  0  0  0  0  0  0  0  0
   41.8830   35.2290   39.1580 C   0  0  0  0  0  0  0  0  0  0  0  0
   44.5420   35.9070   44.7500 C   0  0  0  0  0  0  0  0  0  0  0  0
   45.3450   35.7120   43.6320 C   0  0  0  0  0  0  0  0  0  0  0  0
   46.2140   34.6040   43.6140 C   0  0  0  0  0  0  0  0  0  0  0  0
   46.2190   33.7940   44.6850 N   0  0  0  0  0  0  0  0  0  0  0  0
   45.4340   33.9990   45.7620 C   0  0  0  0  0  0  0  0  0  0  0  0
   44.5890   35.0670   45.7910 N   0  0  0  0  0  0  0  0  0  0  0  0
   48.9142   33.8459   43.4368 H   0  0  0  0  0  0  0  0  0  0  0  0
   48.4799   32.7232   42.2085 H   0  0  0  0  0  0  0  0  0  0  0  0
   49.0078   35.7940   41.8312 H   0  0  0  0  0  0  0  0  0  0  0  0
   50.0310   34.5820   41.1623 H   0  0  0  0  0  0  0  0  0  0  0  0
   48.0829   33.6243   39.8078 H   0  0  0  0  0  0  0  0  0  0  0  0
   47.9877   35.3383   39.5442 H   0  0  0  0  0  0  0  0  0  0  0  0
   46.2074   35.5709   41.0116 H   0  0  0  0  0  0  0  0  0  0  0  0
   46.8985   32.0168   40.4472 H   0  0  0  0  0  0  0  0  0  0  0  0
   45.1412   30.5200   39.5964 H   0  0  0  0  0  0  0  0  0  0  0  0
   42.8123   31.3296   39.3002 H   0  0  0  0  0  0  0  0  0  0  0  0
   41.4518   33.0859   39.3215 H   0  0  0  0  0  0  0  0  0  0  0  0
   41.2006   33.4396   41.8806 H   0  0  0  0  0  0  0  0  0  0  0  0
   41.9695   34.9798   41.8310 H   0  0  0  0  0  0  0  0  0  0  0  0
   39.3783   34.0923   40.3301 H   0  0  0  0  0  0  0  0  0  0  0  0
   39.4507   35.3904   41.4892 H   0  0  0  0  0  0  0  0  0  0  0  0
   39.8039   35.7804   38.7637 H   0  0  0  0  0  0  0  0  0  0  0  0
   40.5960   36.8384   39.9379 H   0  0  0  0  0  0  0  0  0  0  0  0
   41.9185   35.0973   38.0665 H   0  0  0  0  0  0  0  0  0  0  0  0
   42.7231   35.8946   39.4053 H   0  0  0  0  0  0  0  0  0  0  0  0
   43.8562   36.7665   44.7796 H   0  0  0  0  0  0  0  0  0  0  0  0
   45.3025   36.4074   42.7808 H   0  0  0  0  0  0  0  0  0  0  0  0
   45.4759   33.3056   46.6149 H   0  0  0  0  0  0  0  0  0  0  0  0
  1 20  1  0
  2  1  1  0
  3  2  1  0
  4  5  1  0
  4  3  1  0
  5  1  1  0
  7  8  2  0
  7  6  1  0
  8  5  1  0
  9  8  1  0
 10  9  2  0
 11 10  1  0
 11 12  2  0
 12  7  1  0
 13 12  1  0
 13 14  1  0
 15 14  1  0
 16 15  1  0
 17 16  1  0
 17 13  1  0
 18 23  2  0
 19 18  1  0
 20 19  2  0
 20 21  1  0
 21 22  2  0
 22 23  1  0
  2 24  1  0
  2 25  1  0
  3 26  1  0
  3 27  1  0
  4 28  1  0
  4 29  1  0
  5 30  1  1
  9 31  1  0
 10 32  1  0
 11 33  1  0
 13 34  1  0
 14 35  1  0
 14 36  1  0
 15 37  1  0
 15 38  1  0
 16 39  1  0
 16 40  1  0
 17 41  1  0
 17 42  1  0
 18 43  1  0
 19 44  1  0
 22 45  1  0
M  ISO  8  24  13  25  13  26  13  27  13  28  13  29  13  30  13  31  14
M  ISO  8  32  14  33  14  34  13  35  13  36  13  37  13  38  13  39  13
M  ISO  6  40  13  41  13  42  13  43  14  44  14  45  14
M  END
>  <minimizedAffinity>  (1) 
-6.37022448

>  <minimizedRMSD>  (1) 
0.879383326

$$$$
