
     RDKit          3D

 39 42  0  0  1  0  0  0  0  0999 V2000
   46.9410   34.2780   42.4310 N   0  0  0  0  0  0  0  0  0  0  0  0
   48.2470   33.6930   42.3270 C   0  0  0  0  0  0  0  0  0  0  0  0
   48.8310   34.6250   41.2940 C   0  0  0  0  0  0  0  0  0  0  0  0
   47.7430   34.5000   40.2210 C   0  0  0  0  0  0  0  0  0  0  0  0
   46.5110   34.5530   41.0540 C   0  0  1  0  0  0  0  0  0  0  0  0
   43.8640   35.5050   40.6580 F   0  0  0  0  0  0  0  0  0  0  0  0
   44.1050   34.1770   40.4100 C   0  0  0  0  0  0  0  0  0  0  0  0
   45.3850   33.7230   40.6170 C   0  0  0  0  0  0  0  0  0  0  0  0
   45.5820   32.3800   40.3560 C   0  0  0  0  0  0  0  0  0  0  0  0
   44.5520   31.5710   39.9190 C   0  0  0  0  0  0  0  0  0  0  0  0
   43.2620   32.0970   39.7260 C   0  0  0  0  0  0  0  0  0  0  0  0
   43.0390   33.4620   39.9860 C   0  0  0  0  0  0  0  0  0  0  0  0
   41.7060   34.0250   39.7920 C   0  0  0  0  0  0  0  0  0  0  0  0
   41.1070   34.2610   38.5730 C   0  0  0  0  0  0  0  0  0  0  0  0
   39.8710   34.7920   38.9630 C   0  0  0  0  0  0  0  0  0  0  0  0
   39.7920   34.8500   40.3380 C   0  0  0  0  0  0  0  0  0  0  0  0
   40.9280   34.3730   40.7890 O   0  0  0  0  0  0  0  0  0  0  0  0
   44.5290   35.9300   44.7390 C   0  0  0  0  0  0  0  0  0  0  0  0
   45.2860   35.7020   43.5970 C   0  0  0  0  0  0  0  0  0  0  0  0
   46.1340   34.5840   43.5520 C   0  0  0  0  0  0  0  0  0  0  0  0
   46.1590   33.7930   44.6360 N   0  0  0  0  0  0  0  0  0  0  0  0
   45.4230   34.0190   45.7400 C   0  0  0  0  0  0  0  0  0  0  0  0
   44.6020   35.0990   45.7870 N   0  0  0  0  0  0  0  0  0  0  0  0
   48.7961   33.7341   43.2793 H   0  0  0  0  0  0  0  0  0  0  0  0
   48.2712   32.6233   42.0718 H   0  0  0  0  0  0  0  0  0  0  0  0
   48.9228   35.6542   41.6712 H   0  0  0  0  0  0  0  0  0  0  0  0
   49.8527   34.3865   40.9636 H   0  0  0  0  0  0  0  0  0  0  0  0
   47.8211   33.5475   39.6763 H   0  0  0  0  0  0  0  0  0  0  0  0
   47.7916   35.2690   39.4359 H   0  0  0  0  0  0  0  0  0  0  0  0
   46.0644   35.5532   40.9530 H   0  0  0  0  0  0  0  0  0  0  0  0
   46.5824   31.9458   40.4998 H   0  0  0  0  0  0  0  0  0  0  0  0
   44.7420   30.5059   39.7201 H   0  0  0  0  0  0  0  0  0  0  0  0
   42.4414   31.4525   39.3778 H   0  0  0  0  0  0  0  0  0  0  0  0
   41.4971   34.0799   37.5605 H   0  0  0  0  0  0  0  0  0  0  0  0
   39.0784   35.1157   38.2724 H   0  0  0  0  0  0  0  0  0  0  0  0
   38.9470   35.2213   40.9364 H   0  0  0  0  0  0  0  0  0  0  0  0
   43.8617   36.8033   44.7833 H   0  0  0  0  0  0  0  0  0  0  0  0
   45.2220   36.3880   42.7395 H   0  0  0  0  0  0  0  0  0  0  0  0
   45.4863   33.3335   46.5980 H   0  0  0  0  0  0  0  0  0  0  0  0
  1 20  1  0
  2  1  1  0
  3  2  1  0
  4  5  1  0
  4  3  1  0
  5  1  1  0
  7  8  2  0
  7  6  1  0
  8  5  1  0
  9  8  1  0
 10  9  2  0
 11 10  1  0
 11 12  2  0
 12  7  1  0
 13 12  1  0
 13 17  1  0
 14 15  1  0
 14 13  2  0
 15 16  2  0
 16 17  1  0
 18 23  2  0
 19 18  1  0
 20 19  2  0
 20 21  1  0
 21 22  2  0
 22 23  1  0
  2 24  1  0
  2 25  1  0
  3 26  1  0
  3 27  1  0
  4 28  1  0
  4 29  1  0
  5 30  1  1
  9 31  1  0
 10 32  1  0
 11 33  1  0
 14 34  1  0
 15 35  1  0
 16 36  1  0
 18 37  1  0
 19 38  1  0
 22 39  1  0
M  ISO  8  24  13  25  13  26  13  27  13  28  13  29  13  30  13  31  14
M  ISO  8  32  14  33  14  34  14  35  14  36  14  37  14  38  14  39  14
M  END
>  <minimizedAffinity>  (1) 
-6.2040205

>  <minimizedRMSD>  (1) 
0.842052639

$$$$
