
     RDKit          3D

 35 37  0  0  1  0  0  0  0  0999 V2000
   47.2520   34.5250   42.6080 N   0  0  0  0  0  0  0  0  0  0  0  0
   48.6410   34.1720   42.6270 C   0  0  0  0  0  0  0  0  0  0  0  0
   49.1450   35.1710   41.6110 C   0  0  0  0  0  0  0  0  0  0  0  0
   48.1880   34.8140   40.4650 C   0  0  0  0  0  0  0  0  0  0  0  0
   46.8960   34.6890   41.1950 C   0  0  1  0  0  0  0  0  0  0  0  0
   44.1450   35.1610   40.6710 F   0  0  0  0  0  0  0  0  0  0  0  0
   44.6390   33.8930   40.4250 C   0  0  0  0  0  0  0  0  0  0  0  0
   45.9630   33.6800   40.7060 C   0  0  0  0  0  0  0  0  0  0  0  0
   46.4110   32.3920   40.4570 C   0  0  0  0  0  0  0  0  0  0  0  0
   45.5650   31.4210   39.9630 C   0  0  0  0  0  0  0  0  0  0  0  0
   44.2150   31.7050   39.6950 C   0  0  0  0  0  0  0  0  0  0  0  0
   43.7410   33.0060   39.9410 C   0  0  0  0  0  0  0  0  0  0  0  0
   42.3270   33.3420   39.6700 C   0  0  0  0  0  0  0  0  0  0  0  0
   44.5000   35.8740   44.7240 C   0  0  0  0  0  0  0  0  0  0  0  0
   45.3750   35.7570   43.6510 C   0  0  0  0  0  0  0  0  0  0  0  0
   46.3200   34.7180   43.6540 C   0  0  0  0  0  0  0  0  0  0  0  0
   46.3200   33.8860   44.7110 N   0  0  0  0  0  0  0  0  0  0  0  0
   45.4650   34.0090   45.7480 C   0  0  0  0  0  0  0  0  0  0  0  0
   44.5480   35.0150   45.7480 N   0  0  0  0  0  0  0  0  0  0  0  0
   49.0934   34.3257   43.6178 H   0  0  0  0  0  0  0  0  0  0  0  0
   48.8670   33.1175   42.4102 H   0  0  0  0  0  0  0  0  0  0  0  0
   49.0190   36.2097   41.9504 H   0  0  0  0  0  0  0  0  0  0  0  0
   50.2185   35.1202   41.3763 H   0  0  0  0  0  0  0  0  0  0  0  0
   48.4719   33.8668   39.9830 H   0  0  0  0  0  0  0  0  0  0  0  0
   48.1737   35.5462   39.6442 H   0  0  0  0  0  0  0  0  0  0  0  0
   46.3015   35.5979   41.0205 H   0  0  0  0  0  0  0  0  0  0  0  0
   47.4626   32.1391   40.6575 H   0  0  0  0  0  0  0  0  0  0  0  0
   45.9530   30.4088   39.7759 H   0  0  0  0  0  0  0  0  0  0  0  0
   43.5441   30.9271   39.3016 H   0  0  0  0  0  0  0  0  0  0  0  0
   41.7914   33.4693   40.6223 H   0  0  0  0  0  0  0  0  0  0  0  0
   42.2764   34.2772   39.0930 H   0  0  0  0  0  0  0  0  0  0  0  0
   41.8611   32.5295   39.0930 H   0  0  0  0  0  0  0  0  0  0  0  0
   43.7569   36.6850   44.7314 H   0  0  0  0  0  0  0  0  0  0  0  0
   45.3283   36.4671   42.8122 H   0  0  0  0  0  0  0  0  0  0  0  0
   45.5089   33.3005   46.5883 H   0  0  0  0  0  0  0  0  0  0  0  0
  1  2  1  0
  1 16  1  0
  3  2  1  0
  4  5  1  0
  4  3  1  0
  5  1  1  0
  7  6  1  0
  7  8  2  0
  8  5  1  0
  9  8  1  0
 10  9  2  0
 11 12  2  0
 11 10  1  0
 12  7  1  0
 13 12  1  0
 14 19  2  0
 15 16  2  0
 15 14  1  0
 16 17  1  0
 17 18  2  0
 18 19  1  0
  2 20  1  0
  2 21  1  0
  3 22  1  0
  3 23  1  0
  4 24  1  0
  4 25  1  0
  5 26  1  1
  9 27  1  0
 10 28  1  0
 11 29  1  0
 13 30  1  0
 13 31  1  0
 13 32  1  0
 14 33  1  0
 15 34  1  0
 18 35  1  0
M  ISO  8  20  13  21  13  22  13  23  13  24  13  25  13  26  13  27  14
M  ISO  8  28  14  29  14  30   8  31   8  32   8  33  14  34  14  35  14
M  END
>  <minimizedAffinity>  (1) 
-5.18569422

>  <minimizedRMSD>  (1) 
0.0849656612

$$$$
