
     RDKit          3D

 33 35  0  0  1  0  0  0  0  0999 V2000
   47.2870   34.5480   42.6030 N   0  0  0  0  0  0  0  0  0  0  0  0
   48.6840   34.2230   42.6260 C   0  0  0  0  0  0  0  0  0  0  0  0
   49.1670   35.2320   41.6070 C   0  0  0  0  0  0  0  0  0  0  0  0
   48.2220   34.8530   40.4540 C   0  0  0  0  0  0  0  0  0  0  0  0
   46.9340   34.6970   41.1850 C   0  0  1  0  0  0  0  0  0  0  0  0
   44.1700   35.0870   40.6620 F   0  0  0  0  0  0  0  0  0  0  0  0
   44.6940   33.8370   40.4260 C   0  0  0  0  0  0  0  0  0  0  0  0
   46.0250   33.6580   40.6980 C   0  0  0  0  0  0  0  0  0  0  0  0
   46.5080   32.3860   40.4480 C   0  0  0  0  0  0  0  0  0  0  0  0
   45.6930   31.3850   39.9600 C   0  0  0  0  0  0  0  0  0  0  0  0
   44.3340   31.6380   39.7020 C   0  0  0  0  0  0  0  0  0  0  0  0
   43.8170   32.9240   39.9490 C   0  0  0  0  0  0  0  0  0  0  0  0
   42.0930   33.2790   39.6330 S   0  0  0  0  0  0  0  0  0  0  0  0
   44.5010   35.8560   44.6960 C   0  0  0  0  0  0  0  0  0  0  0  0
   45.3910   35.7440   43.6380 C   0  0  0  0  0  0  0  0  0  0  0  0
   46.3450   34.7250   43.6410 C   0  0  0  0  0  0  0  0  0  0  0  0
   46.3410   33.8940   44.6960 N   0  0  0  0  0  0  0  0  0  0  0  0
   45.4780   34.0000   45.7250 C   0  0  0  0  0  0  0  0  0  0  0  0
   44.5530   34.9920   45.7200 N   0  0  0  0  0  0  0  0  0  0  0  0
   49.1316   34.3884   43.6171 H   0  0  0  0  0  0  0  0  0  0  0  0
   48.9333   33.1730   42.4132 H   0  0  0  0  0  0  0  0  0  0  0  0
   49.0160   36.2680   41.9444 H   0  0  0  0  0  0  0  0  0  0  0  0
   50.2420   35.2032   41.3755 H   0  0  0  0  0  0  0  0  0  0  0  0
   48.5294   33.9135   39.9714 H   0  0  0  0  0  0  0  0  0  0  0  0
   48.1924   35.5834   39.6320 H   0  0  0  0  0  0  0  0  0  0  0  0
   46.3204   35.5921   41.0053 H   0  0  0  0  0  0  0  0  0  0  0  0
   47.5682   32.1670   40.6431 H   0  0  0  0  0  0  0  0  0  0  0  0
   46.1086   30.3840   39.7719 H   0  0  0  0  0  0  0  0  0  0  0  0
   43.6833   30.8414   39.3122 H   0  0  0  0  0  0  0  0  0  0  0  0
   41.4292   33.4157   40.8236 H   0  0  0  0  0  0  0  0  0  0  0  0
   43.7483   36.6582   44.6949 H   0  0  0  0  0  0  0  0  0  0  0  0
   45.3452   36.4552   42.8001 H   0  0  0  0  0  0  0  0  0  0  0  0
   45.5231   33.2880   46.5623 H   0  0  0  0  0  0  0  0  0  0  0  0
  1  2  1  0
  1 16  1  0
  3  2  1  0
  4  5  1  0
  4  3  1  0
  5  1  1  0
  7  6  1  0
  7  8  2  0
  8  5  1  0
  9  8  1  0
 10  9  2  0
 11 12  2  0
 11 10  1  0
 12  7  1  0
 13 12  1  0
 14 19  2  0
 15 16  2  0
 15 14  1  0
 16 17  1  0
 17 18  2  0
 19 18  1  0
  2 20  1  0
  2 21  1  0
  3 22  1  0
  3 23  1  0
  4 24  1  0
  4 25  1  0
  5 26  1  1
  9 27  1  0
 10 28  1  0
 11 29  1  0
 13 30  1  0
 14 31  1  0
 15 32  1  0
 18 33  1  0
M  ISO  8  20  13  21  13  22  13  23  13  24  13  25  13  26  13  27  14
M  ISO  6  28  14  29  14  30  11  31  14  32  14  33  14
M  END
>  <minimizedAffinity>  (1) 
-5.18215227

>  <minimizedRMSD>  (1) 
0.0140956072

$$$$
