
     RDKit          3D

 33 35  0  0  1  0  0  0  0  0999 V2000
   47.2890   34.5500   42.6070 N   0  0  0  0  0  0  0  0  0  0  0  0
   48.6820   34.2200   42.6350 C   0  0  0  0  0  0  0  0  0  0  0  0
   49.1760   35.2220   41.6120 C   0  0  0  0  0  0  0  0  0  0  0  0
   48.2270   34.8570   40.4630 C   0  0  0  0  0  0  0  0  0  0  0  0
   46.9370   34.7100   41.1890 C   0  0  1  0  0  0  0  0  0  0  0  0
   44.1740   35.0870   40.6650 F   0  0  0  0  0  0  0  0  0  0  0  0
   44.6920   33.8490   40.4300 C   0  0  0  0  0  0  0  0  0  0  0  0
   46.0250   33.6710   40.6960 C   0  0  0  0  0  0  0  0  0  0  0  0
   46.5080   32.3980   40.4400 C   0  0  0  0  0  0  0  0  0  0  0  0
   45.6860   31.4020   39.9540 C   0  0  0  0  0  0  0  0  0  0  0  0
   44.3230   31.6430   39.7000 C   0  0  0  0  0  0  0  0  0  0  0  0
   43.8200   32.9350   39.9570 C   0  0  0  0  0  0  0  0  0  0  0  0
   42.4730   33.1850   39.7100 O   0  0  0  0  0  0  0  0  0  0  0  0
   44.5010   35.8560   44.7010 C   0  0  0  0  0  0  0  0  0  0  0  0
   45.3890   35.7490   43.6400 C   0  0  0  0  0  0  0  0  0  0  0  0
   46.3450   34.7250   43.6450 C   0  0  0  0  0  0  0  0  0  0  0  0
   46.3420   33.8910   44.6980 N   0  0  0  0  0  0  0  0  0  0  0  0
   45.4800   33.9970   45.7250 C   0  0  0  0  0  0  0  0  0  0  0  0
   44.5480   34.9920   45.7240 N   0  0  0  0  0  0  0  0  0  0  0  0
   49.1270   34.3879   43.6269 H   0  0  0  0  0  0  0  0  0  0  0  0
   48.9260   33.1678   42.4267 H   0  0  0  0  0  0  0  0  0  0  0  0
   49.0396   36.2602   41.9488 H   0  0  0  0  0  0  0  0  0  0  0  0
   50.2499   35.1773   41.3782 H   0  0  0  0  0  0  0  0  0  0  0  0
   48.5255   33.9164   39.9770 H   0  0  0  0  0  0  0  0  0  0  0  0
   48.2037   35.5929   39.6458 H   0  0  0  0  0  0  0  0  0  0  0  0
   46.3289   35.6095   41.0125 H   0  0  0  0  0  0  0  0  0  0  0  0
   47.5690   32.1766   40.6281 H   0  0  0  0  0  0  0  0  0  0  0  0
   46.1032   30.4025   39.7618 H   0  0  0  0  0  0  0  0  0  0  0  0
   43.6696   30.8474   39.3126 H   0  0  0  0  0  0  0  0  0  0  0  0
   42.0967   34.0843   39.8826 H   0  0  0  0  0  0  0  0  0  0  0  0
   43.7498   36.6595   44.7022 H   0  0  0  0  0  0  0  0  0  0  0  0
   45.3427   36.4614   42.8031 H   0  0  0  0  0  0  0  0  0  0  0  0
   45.5268   33.2844   46.5616 H   0  0  0  0  0  0  0  0  0  0  0  0
  1  2  1  0
  1 16  1  0
  3  2  1  0
  4  5  1  0
  4  3  1  0
  5  1  1  0
  7  6  1  0
  7  8  2  0
  8  5  1  0
  9  8  1  0
 10  9  2  0
 11 10  1  0
 11 12  2  0
 12  7  1  0
 13 12  1  0
 14 19  2  0
 15 16  2  0
 15 14  1  0
 16 17  1  0
 17 18  2  0
 19 18  1  0
  2 20  1  0
  2 21  1  0
  3 22  1  0
  3 23  1  0
  4 24  1  0
  4 25  1  0
  5 26  1  1
  9 27  1  0
 10 28  1  0
 11 29  1  0
 13 30  1  0
 14 31  1  0
 15 32  1  0
 18 33  1  0
M  ISO  8  20  13  21  13  22  13  23  13  24  13  25  13  26  13  27  14
M  ISO  6  28  14  29  14  30   3  31  14  32  14  33  14
M  END
>  <minimizedAffinity>  (1) 
-5.15226984

>  <minimizedRMSD>  (1) 
0.0199099574

$$$$
