
     RDKit          3D

 20 21  0  0  0  0  0  0  0  0999 V2000
   45.8520   35.2500   42.6630 C   0  0  0  0  0  0  0  0  0  0  0  0
   47.0280   34.9520   41.9540 C   0  0  0  0  0  0  0  0  0  0  0  0
   47.9480   34.0780   42.5600 C   0  0  0  0  0  0  0  0  0  0  0  0
   47.6600   33.5630   43.7960 N   0  0  0  0  0  0  0  0  0  0  0  0
   46.5210   33.8780   44.4360 C   0  0  0  0  0  0  0  0  0  0  0  0
   45.6210   34.7120   43.8820 N   0  0  0  0  0  0  0  0  0  0  0  0
   46.1430   33.3980   45.7070 N   0  0  0  0  0  0  0  0  0  0  0  0
   46.8200   32.3070   46.1070 C   0  0  0  0  0  0  0  0  0  0  0  0
   46.5400   31.7380   47.3400 C   0  0  0  0  0  0  0  0  0  0  0  0
   45.5430   32.3620   48.0980 C   0  0  0  0  0  0  0  0  0  0  0  0
   45.2520   31.8790   49.2320 O   0  0  0  0  0  0  0  0  0  0  0  0
   44.8850   33.4580   47.6610 N   0  0  0  0  0  0  0  0  0  0  0  0
   45.1960   33.9690   46.4580 C   0  0  0  0  0  0  0  0  0  0  0  0
   44.6440   34.9950   45.9460 O   0  0  0  0  0  0  0  0  0  0  0  0
   45.1093   35.9301   42.2205 H   0  0  0  0  0  0  0  0  0  0  0  0
   47.2217   35.3861   40.9620 H   0  0  0  0  0  0  0  0  0  0  0  0
   48.8850   33.8119   42.0489 H   0  0  0  0  0  0  0  0  0  0  0  0
   47.5926   31.8679   45.4587 H   0  0  0  0  0  0  0  0  0  0  0  0
   47.0719   30.8459   47.7021 H   0  0  0  0  0  0  0  0  0  0  0  0
   44.1554   33.8955   48.2417 H   0  0  0  0  0  0  0  0  0  0  0  0
  1  6  2  0
  2  3  2  0
  2  1  1  0
  3  4  1  0
  4  5  2  0
  5  7  1  0
  6  5  1  0
  7  8  1  0
  7 13  1  0
  8  9  2  0
  9 10  1  0
 10 11  2  0
 12 10  1  0
 13 12  1  0
 14 13  2  0
  1 15  1  0
  2 16  1  0
  3 17  1  0
  8 18  1  0
  9 19  1  0
 12 20  1  0
M  ISO  6  15  14  16  14  17  14  18  14  19  14  20   9
M  END
>  <minimizedAffinity>  (1) 
-5.37395144

>  <minimizedRMSD>  (1) 
1.63477612

$$$$
