
     RDKit          3D

 27 29  0  0  0  0  0  0  0  0999 V2000
   42.3340   34.9190   41.3240 C   0  0  0  0  0  0  0  0  0  0  0  0
   43.0650   34.4270   40.2620 C   0  0  0  0  0  0  0  0  0  0  0  0
   42.4580   34.1310   39.0560 C   0  0  0  0  0  0  0  0  0  0  0  0
   41.1050   34.3220   38.8880 C   0  0  0  0  0  0  0  0  0  0  0  0
   40.3470   34.8220   39.9620 C   0  0  0  0  0  0  0  0  0  0  0  0
   40.9640   35.1150   41.1630 C   0  0  0  0  0  0  0  0  0  0  0  0
   39.0060   34.9220   39.5310 O   0  0  0  0  0  0  0  0  0  0  0  0
   38.9360   34.1650   38.3310 C   0  0  0  0  0  0  0  0  0  0  0  0
   40.2450   34.1130   37.8030 O   0  0  0  0  0  0  0  0  0  0  0  0
   44.8170   34.2070   40.5580 S   0  0  0  0  0  0  0  0  0  0  0  0
   45.1080   33.9140   42.3270 C   0  0  0  0  0  0  0  0  0  0  0  0
   45.7480   32.6960   42.5920 C   0  0  0  0  0  0  0  0  0  0  0  0
   45.9980   32.4220   43.9550 C   0  0  0  0  0  0  0  0  0  0  0  0
   45.6120   33.3280   44.8940 N   0  0  0  0  0  0  0  0  0  0  0  0
   45.0050   34.4720   44.5690 C   0  0  0  0  0  0  0  0  0  0  0  0
   44.7410   34.7890   43.2870 N   0  0  0  0  0  0  0  0  0  0  0  0
   44.6200   35.4040   45.6610 C   0  0  0  0  0  0  0  0  0  0  0  0
   42.8242   35.1523   42.2807 H   0  0  0  0  0  0  0  0  0  0  0  0
   43.0611   33.7395   38.2235 H   0  0  0  0  0  0  0  0  0  0  0  0
   40.3678   35.5068   42.0002 H   0  0  0  0  0  0  0  0  0  0  0  0
   38.5737   33.1487   38.5452 H   0  0  0  0  0  0  0  0  0  0  0  0
   38.2399   34.6255   37.6145 H   0  0  0  0  0  0  0  0  0  0  0  0
   46.0367   31.9991   41.7914 H   0  0  0  0  0  0  0  0  0  0  0  0
   46.4980   31.4887   44.2533 H   0  0  0  0  0  0  0  0  0  0  0  0
   44.8159   34.9297   46.6340 H   0  0  0  0  0  0  0  0  0  0  0  0
   45.2097   36.3289   45.5786 H   0  0  0  0  0  0  0  0  0  0  0  0
   43.5495   35.6431   45.5786 H   0  0  0  0  0  0  0  0  0  0  0  0
  2 10  1  0
  2  1  2  0
  3  2  1  0
  4  3  2  0
  4  5  1  0
  5  6  2  0
  6  1  1  0
  7  5  1  0
  8  7  1  0
  9  8  1  0
  9  4  1  0
 10 11  1  0
 11 12  2  0
 11 16  1  0
 12 13  1  0
 13 14  2  0
 15 14  1  0
 15 17  1  0
 16 15  2  0
  1 18  1  0
  3 19  1  0
  6 20  1  0
  8 21  1  0
  8 22  1  0
 12 23  1  0
 13 24  1  0
 17 25  1  0
 17 26  1  0
 17 27  1  0
M  ISO  8  18  14  19  14  20  14  21  13  22  13  23  14  24  14  25   8
M  ISO  2  26   8  27   8
M  END
>  <minimizedAffinity>  (1) 
-4.48435497

>  <minimizedRMSD>  (1) 
0.990955651

$$$$
