
     RDKit          3D

 36 39  0  0  0  0  0  0  0  0999 V2000
   44.0440   34.7690   41.0300 C   0  0  0  0  0  0  0  0  0  0  0  0
   43.9520   34.0040   39.8880 C   0  0  0  0  0  0  0  0  0  0  0  0
   45.1480   33.4420   39.4380 C   0  0  0  0  0  0  0  0  0  0  0  0
   46.2940   33.6590   40.1040 N   0  0  0  0  0  0  0  0  0  0  0  0
   46.3310   34.4190   41.2220 C   0  0  0  0  0  0  0  0  0  0  0  0
   45.2030   34.9610   41.6640 N   0  0  0  0  0  0  0  0  0  0  0  0
   45.1300   32.6190   38.2360 C   0  0  0  0  0  0  0  0  0  0  0  0
   44.7090   31.3090   38.3150 C   0  0  0  0  0  0  0  0  0  0  0  0
   44.7260   30.6180   37.1360 C   0  0  0  0  0  0  0  0  0  0  0  0
   45.1190   31.1460   35.9650 N   0  0  0  0  0  0  0  0  0  0  0  0
   45.5300   32.4470   35.9140 C   0  0  0  0  0  0  0  0  0  0  0  0
   45.5220   33.1470   37.0630 N   0  0  0  0  0  0  0  0  0  0  0  0
   42.4840   35.5020   41.6170 S   0  0  0  0  0  0  0  0  0  0  0  0
   40.2410   35.0220   40.2180 C   0  0  0  0  0  0  0  0  0  0  0  0
   41.1090   34.4650   41.1480 C   0  0  0  0  0  0  0  0  0  0  0  0
   40.8820   33.2110   41.6360 C   0  0  0  0  0  0  0  0  0  0  0  0
   39.7940   32.4480   41.2340 C   0  0  0  0  0  0  0  0  0  0  0  0
   38.9240   33.0160   40.2980 C   0  0  0  0  0  0  0  0  0  0  0  0
   39.1360   34.2920   39.7870 C   0  0  0  0  0  0  0  0  0  0  0  0
   37.9140   32.0630   40.0540 O   0  0  0  0  0  0  0  0  0  0  0  0
   38.0000   31.1150   41.0800 C   0  0  0  0  0  0  0  0  0  0  0  0
   39.3300   31.1710   41.5610 O   0  0  0  0  0  0  0  0  0  0  0  0
   47.4520   34.6900   41.9610 O   0  0  0  0  0  0  0  0  0  0  0  0
   48.6200   35.0930   41.3020 C   0  0  0  0  0  0  0  0  0  0  0  0
   49.6590   34.2100   41.4680 F   0  0  0  0  0  0  0  0  0  0  0  0
   48.2620   35.2470   39.9540 F   0  0  0  0  0  0  0  0  0  0  0  0
   49.0050   36.3160   41.8340 F   0  0  0  0  0  0  0  0  0  0  0  0
   42.9976   33.8462   39.3644 H   0  0  0  0  0  0  0  0  0  0  0  0
   44.3823   30.8517   39.2606 H   0  0  0  0  0  0  0  0  0  0  0  0
   44.3987   29.5679   37.1466 H   0  0  0  0  0  0  0  0  0  0  0  0
   45.8555   32.9058   34.9687 H   0  0  0  0  0  0  0  0  0  0  0  0
   40.4249   36.0326   39.8245 H   0  0  0  0  0  0  0  0  0  0  0  0
   41.5838   32.7911   42.3717 H   0  0  0  0  0  0  0  0  0  0  0  0
   38.4391   34.7196   39.0511 H   0  0  0  0  0  0  0  0  0  0  0  0
   37.2927   31.3605   41.8859 H   0  0  0  0  0  0  0  0  0  0  0  0
   37.7480   30.1079   40.7164 H   0  0  0  0  0  0  0  0  0  0  0  0
  1 13  1  0
  1  6  1  0
  2  1  2  0
  3  2  1  0
  3  4  2  0
  4  5  1  0
  5  6  2  0
  5 23  1  0
  7  8  2  0
  7  3  1  0
  9  8  1  0
 10  9  2  0
 11 10  1  0
 11 12  2  0
 12  7  1  0
 14 15  2  0
 15 13  1  0
 15 16  1  0
 17 22  1  0
 17 16  2  0
 18 17  1  0
 19 14  1  0
 19 18  2  0
 20 18  1  0
 20 21  1  0
 21 22  1  0
 24 25  1  0
 24 27  1  0
 24 23  1  0
 26 24  1  0
  2 28  1  0
  8 29  1  0
  9 30  1  0
 11 31  1  0
 14 32  1  0
 16 33  1  0
 19 34  1  0
 21 35  1  0
 21 36  1  0
M  ISO  8  28  14  29  14  30  14  31  14  32  14  33  14  34  14  35  13
M  ISO  1  36  13
M  END
>  <minimizedAffinity>  (1) 
-5.99881077

>  <minimizedRMSD>  (1) 
0.483125687

$$$$
