
     RDKit          3D

 35 38  0  0  0  0  0  0  0  0999 V2000
   43.9400   34.7750   40.9740 C   0  0  0  0  0  0  0  0  0  0  0  0
   43.8870   33.8840   39.9310 C   0  0  0  0  0  0  0  0  0  0  0  0
   45.0920   33.2820   39.5540 C   0  0  0  0  0  0  0  0  0  0  0  0
   46.2210   33.6030   40.2200 N   0  0  0  0  0  0  0  0  0  0  0  0
   46.2290   34.4810   41.2360 C   0  0  0  0  0  0  0  0  0  0  0  0
   45.0860   35.0560   41.5980 N   0  0  0  0  0  0  0  0  0  0  0  0
   45.1140   32.3250   38.4530 C   0  0  0  0  0  0  0  0  0  0  0  0
   45.4240   31.0020   38.5440 C   0  0  0  0  0  0  0  0  0  0  0  0
   45.3100   30.5060   37.2600 C   0  0  0  0  0  0  0  0  0  0  0  0
   44.9460   31.5190   36.4580 N   0  0  0  0  0  0  0  0  0  0  0  0
   44.8260   32.6200   37.1740 N   0  0  0  0  0  0  0  0  0  0  0  0
   42.3600   35.5360   41.4370 S   0  0  0  0  0  0  0  0  0  0  0  0
   40.0150   34.9340   40.2790 C   0  0  0  0  0  0  0  0  0  0  0  0
   41.0070   34.4170   41.1050 C   0  0  0  0  0  0  0  0  0  0  0  0
   40.9200   33.1400   41.6080 C   0  0  0  0  0  0  0  0  0  0  0  0
   39.8520   32.3180   41.3190 C   0  0  0  0  0  0  0  0  0  0  0  0
   38.8450   32.8340   40.4840 C   0  0  0  0  0  0  0  0  0  0  0  0
   38.9090   34.1230   39.9620 C   0  0  0  0  0  0  0  0  0  0  0  0
   37.8780   31.8250   40.3380 O   0  0  0  0  0  0  0  0  0  0  0  0
   38.1280   30.8900   41.3520 C   0  0  0  0  0  0  0  0  0  0  0  0
   39.4990   31.0180   41.6700 O   0  0  0  0  0  0  0  0  0  0  0  0
   47.3390   34.8490   41.9530 O   0  0  0  0  0  0  0  0  0  0  0  0
   48.5420   35.1020   41.2800 C   0  0  0  0  0  0  0  0  0  0  0  0
   49.4860   34.1290   41.4640 F   0  0  0  0  0  0  0  0  0  0  0  0
   48.1810   35.2410   39.9250 F   0  0  0  0  0  0  0  0  0  0  0  0
   49.0430   36.2990   41.7710 F   0  0  0  0  0  0  0  0  0  0  0  0
   42.9423   33.6545   39.4164 H   0  0  0  0  0  0  0  0  0  0  0  0
   45.7060   30.4453   39.4499 H   0  0  0  0  0  0  0  0  0  0  0  0
   45.4862   29.4655   36.9497 H   0  0  0  0  0  0  0  0  0  0  0  0
   44.7856   31.4476   35.4431 H   0  0  0  0  0  0  0  0  0  0  0  0
   40.0930   35.9566   39.8812 H   0  0  0  0  0  0  0  0  0  0  0  0
   41.7240   32.7647   42.2582 H   0  0  0  0  0  0  0  0  0  0  0  0
   38.1071   34.5021   39.3114 H   0  0  0  0  0  0  0  0  0  0  0  0
   37.5089   31.1085   42.2346 H   0  0  0  0  0  0  0  0  0  0  0  0
   37.8833   29.8680   41.0271 H   0  0  0  0  0  0  0  0  0  0  0  0
  1 12  1  0
  1  6  1  0
  2  1  2  0
  3  2  1  0
  3  4  2  0
  4  5  1  0
  5  6  2  0
  5 22  1  0
  7  8  1  0
  7  3  1  0
  9  8  2  0
 10 11  1  0
 10  9  1  0
 11  7  2  0
 13 14  2  0
 14 12  1  0
 14 15  1  0
 16 15  2  0
 16 21  1  0
 17 16  1  0
 18 13  1  0
 18 17  2  0
 19 17  1  0
 19 20  1  0
 20 21  1  0
 23 24  1  0
 23 26  1  0
 23 22  1  0
 25 23  1  0
  2 27  1  0
  8 28  1  0
  9 29  1  0
 10 30  1  0
 13 31  1  0
 15 32  1  0
 18 33  1  0
 20 34  1  0
 20 35  1  0
M  ISO  8  27  14  28  14  29  14  30   9  31  14  32  14  33  14  34  13
M  ISO  1  35  13
M  END
>  <minimizedAffinity>  (1) 
-5.85939693

>  <minimizedRMSD>  (1) 
0.15823181

$$$$
