
     RDKit          3D

 32 34  0  0  0  0  0  0  0  0999 V2000
   43.6950   34.2270   40.1510 C   0  0  0  0  0  0  0  0  0  0  0  0
   43.5430   33.8140   38.8490 C   0  0  0  0  0  0  0  0  0  0  0  0
   44.6610   33.2310   38.2490 C   0  0  0  0  0  0  0  0  0  0  0  0
   45.8100   33.0940   38.9360 N   0  0  0  0  0  0  0  0  0  0  0  0
   45.9210   33.5130   40.2160 C   0  0  0  0  0  0  0  0  0  0  0  0
   44.8560   34.0620   40.7670 N   0  0  0  0  0  0  0  0  0  0  0  0
   44.6180   32.7630   36.8980 N   0  0  0  0  0  0  0  0  0  0  0  0
   42.3970   33.9090   38.0490 N   0  0  0  0  0  0  0  0  0  0  0  0
   42.2360   34.9820   40.9100 S   0  0  0  0  0  0  0  0  0  0  0  0
   39.6880   34.3330   40.4150 C   0  0  0  0  0  0  0  0  0  0  0  0
   40.8720   33.8180   40.9220 C   0  0  0  0  0  0  0  0  0  0  0  0
   40.9580   32.5280   41.3840 C   0  0  0  0  0  0  0  0  0  0  0  0
   39.8640   31.6900   41.3600 C   0  0  0  0  0  0  0  0  0  0  0  0
   38.6600   32.1830   40.8550 C   0  0  0  0  0  0  0  0  0  0  0  0
   38.5700   33.4820   40.3890 C   0  0  0  0  0  0  0  0  0  0  0  0
   37.7160   31.1450   40.9420 O   0  0  0  0  0  0  0  0  0  0  0  0
   38.2660   30.1590   41.7610 C   0  0  0  0  0  0  0  0  0  0  0  0
   39.6610   30.3640   41.7530 O   0  0  0  0  0  0  0  0  0  0  0  0
   47.0470   33.4170   40.9960 O   0  0  0  0  0  0  0  0  0  0  0  0
   47.9360   34.4990   41.0180 C   0  0  0  0  0  0  0  0  0  0  0  0
   49.1670   34.1800   41.5120 F   0  0  0  0  0  0  0  0  0  0  0  0
   48.0210   34.9700   39.6870 F   0  0  0  0  0  0  0  0  0  0  0  0
   47.3900   35.4780   41.8290 F   0  0  0  0  0  0  0  0  0  0  0  0
   45.4539   32.3359   36.4741 H   0  0  0  0  0  0  0  0  0  0  0  0
   43.7511   32.8531   36.3491 H   0  0  0  0  0  0  0  0  0  0  0  0
   42.4145   33.5586   37.0806 H   0  0  0  0  0  0  0  0  0  0  0  0
   41.5369   34.3293   38.4292 H   0  0  0  0  0  0  0  0  0  0  0  0
   39.6266   35.3679   40.0474 H   0  0  0  0  0  0  0  0  0  0  0  0
   41.9152   32.1574   41.7796 H   0  0  0  0  0  0  0  0  0  0  0  0
   37.6129   33.8531   39.9937 H   0  0  0  0  0  0  0  0  0  0  0  0
   37.8740   30.2529   42.7845 H   0  0  0  0  0  0  0  0  0  0  0  0
   38.0098   29.1525   41.3986 H   0  0  0  0  0  0  0  0  0  0  0  0
  1  6  1  0
  1  9  1  0
  2  1  2  0
  3  2  1  0
  3  4  2  0
  4  5  1  0
  5  6  2  0
  5 19  1  0
  7  3  1  0
  8  2  1  0
  9 11  1  0
 10 11  2  0
 11 12  1  0
 13 12  2  0
 13 18  1  0
 14 16  1  0
 14 13  1  0
 15 10  1  0
 15 14  2  0
 16 17  1  0
 18 17  1  0
 19 20  1  0
 20 21  1  0
 20 23  1  0
 22 20  1  0
  7 24  1  0
  7 25  1  0
  8 26  1  0
  8 27  1  0
 10 28  1  0
 12 29  1  0
 15 30  1  0
 17 31  1  0
 17 32  1  0
M  ISO  5  28  14  29  14  30  14  31  13  32  13
M  END
>  <minimizedAffinity>  (1) 
-5.61391211

>  <minimizedRMSD>  (1) 
1.09758317

$$$$
