
     RDKit          3D

 43 46  0  0  1  0  0  0  0  0999 V2000
   40.2330   35.0140   40.3820 C   0  0  0  0  0  0  0  0  0  0  0  0
   41.3200   34.3600   40.9640 C   0  0  0  0  0  0  0  0  0  0  0  0
   41.2240   33.0510   41.3880 C   0  0  0  0  0  0  0  0  0  0  0  0
   40.0470   32.3610   41.2440 C   0  0  0  0  0  0  0  0  0  0  0  0
   38.9600   32.9880   40.6710 C   0  0  0  0  0  0  0  0  0  0  0  0
   39.0240   34.2890   40.2400 C   0  0  0  0  0  0  0  0  0  0  0  0
   37.9170   32.0390   40.6610 O   0  0  0  0  0  0  0  0  0  0  0  0
   38.2800   30.9930   41.4700 C   0  0  2  0  0  0  0  0  0  0  0  0
   39.6850   31.0520   41.5790 O   0  0  0  0  0  0  0  0  0  0  0  0
   39.6750   28.6410   43.0090 Br  0  0  0  0  0  0  0  0  0  0  0  0
   38.2930   28.5110   41.6850 C   0  0  0  0  0  0  0  0  0  0  0  0
   37.7760   29.6660   41.0920 C   0  0  0  0  0  0  0  0  0  0  0  0
   36.7850   29.4980   40.1490 C   0  0  0  0  0  0  0  0  0  0  0  0
   36.3120   28.2330   39.7960 C   0  0  0  0  0  0  0  0  0  0  0  0
   36.8200   27.1010   40.3790 C   0  0  0  0  0  0  0  0  0  0  0  0
   37.8120   27.2730   41.3220 C   0  0  0  0  0  0  0  0  0  0  0  0
   42.7730   35.4050   41.0510 S   0  0  0  0  0  0  0  0  0  0  0  0
   44.2330   34.4730   40.4730 C   0  0  0  0  0  0  0  0  0  0  0  0
   44.0700   33.7810   39.3290 C   0  0  0  0  0  0  0  0  0  0  0  0
   45.1860   33.0580   38.9070 C   0  0  0  0  0  0  0  0  0  0  0  0
   46.3360   33.0650   39.6070 N   0  0  0  0  0  0  0  0  0  0  0  0
   46.4470   33.7770   40.7470 C   0  0  0  0  0  0  0  0  0  0  0  0
   45.3770   34.4650   41.1450 N   0  0  0  0  0  0  0  0  0  0  0  0
   45.1230   32.2630   37.7050 N   0  0  0  0  0  0  0  0  0  0  0  0
   42.9510   33.6090   38.3510 C   0  0  0  0  0  0  0  0  0  0  0  0
   47.5810   33.8470   41.5290 O   0  0  0  0  0  0  0  0  0  0  0  0
   48.4410   34.9590   41.3410 C   0  0  0  0  0  0  0  0  0  0  0  0
   49.7010   34.6980   41.7860 F   0  0  0  0  0  0  0  0  0  0  0  0
   48.4250   35.2480   39.9660 F   0  0  0  0  0  0  0  0  0  0  0  0
   47.9470   36.0170   42.0730 F   0  0  0  0  0  0  0  0  0  0  0  0
   40.3123   36.0580   40.0446 H   0  0  0  0  0  0  0  0  0  0  0  0
   42.0953   32.5580   41.8438 H   0  0  0  0  0  0  0  0  0  0  0  0
   38.1424   34.7661   39.7871 H   0  0  0  0  0  0  0  0  0  0  0  0
   37.7879   31.1181   42.4458 H   0  0  0  0  0  0  0  0  0  0  0  0
   36.3550   30.3852   39.6611 H   0  0  0  0  0  0  0  0  0  0  0  0
   35.5195   28.1431   39.0384 H   0  0  0  0  0  0  0  0  0  0  0  0
   36.4530   26.1003   40.1070 H   0  0  0  0  0  0  0  0  0  0  0  0
   38.2377   26.3814   41.8055 H   0  0  0  0  0  0  0  0  0  0  0  0
   45.9486   31.7303   37.3960 H   0  0  0  0  0  0  0  0  0  0  0  0
   44.2524   32.2280   37.1557 H   0  0  0  0  0  0  0  0  0  0  0  0
   42.0067   33.4638   38.8961 H   0  0  0  0  0  0  0  0  0  0  0  0
   42.8753   34.5061   37.7189 H   0  0  0  0  0  0  0  0  0  0  0  0
   43.1482   32.7306   37.7189 H   0  0  0  0  0  0  0  0  0  0  0  0
  1  2  2  0
  2 17  1  0
  2  3  1  0
  4  3  2  0
  4  9  1  0
  5  4  1  0
  6  1  1  0
  6  5  2  0
  7  5  1  0
  7  8  1  0
  8  9  1  0
 11 10  1  0
 12  8  1  0
 12 11  2  0
 13 12  1  0
 14 13  2  0
 14 15  1  0
 15 16  2  0
 16 11  1  0
 18 17  1  0
 18 23  1  0
 19 18  2  0
 20 19  1  0
 20 21  2  0
 21 22  1  0
 22 23  2  0
 22 26  1  0
 24 20  1  0
 25 19  1  0
 27 26  1  0
 27 28  1  0
 27 30  1  0
 29 27  1  0
  1 31  1  0
  3 32  1  0
  6 33  1  0
  8 34  1  1
 13 35  1  0
 14 36  1  0
 15 37  1  0
 16 38  1  0
 24 39  1  0
 24 40  1  0
 25 41  1  0
 25 42  1  0
 25 43  1  0
M  ISO  8  31  14  32  14  33  14  34  13  35  14  36  14  37  14  38  14
M  ISO  3  41   8  42   8  43   8
M  END
>  <minimizedAffinity>  (1) 
-6.43839073

>  <minimizedRMSD>  (1) 
0.817255199

$$$$
