
     RDKit          3D

 39 41  0  0  1  0  0  0  0  0999 V2000
   44.1000   34.6860   40.8060 C   0  0  0  0  0  0  0  0  0  0  0  0
   44.1040   33.9450   39.6560 C   0  0  0  0  0  0  0  0  0  0  0  0
   45.3450   33.4100   39.3160 C   0  0  0  0  0  0  0  0  0  0  0  0
   46.4390   33.6200   40.0680 N   0  0  0  0  0  0  0  0  0  0  0  0
   46.3880   34.3560   41.1870 C   0  0  0  0  0  0  0  0  0  0  0  0
   45.2110   34.8660   41.5200 N   0  0  0  0  0  0  0  0  0  0  0  0
   45.4490   32.5900   38.1410 N   0  0  0  0  0  0  0  0  0  0  0  0
   43.0640   33.6020   38.6510 C   0  0  0  0  0  0  0  0  0  0  0  0
   42.4910   35.3730   41.3170 S   0  0  0  0  0  0  0  0  0  0  0  0
   40.2080   34.8950   40.0350 C   0  0  0  0  0  0  0  0  0  0  0  0
   41.1770   34.2580   40.8220 C   0  0  0  0  0  0  0  0  0  0  0  0
   41.0790   32.9190   41.1340 C   0  0  0  0  0  0  0  0  0  0  0  0
   40.0250   32.1740   40.6760 C   0  0  0  0  0  0  0  0  0  0  0  0
   39.0620   32.7890   39.8960 C   0  0  0  0  0  0  0  0  0  0  0  0
   39.1370   34.1120   39.5750 C   0  0  0  0  0  0  0  0  0  0  0  0
   38.1150   31.7960   39.5720 O   0  0  0  0  0  0  0  0  0  0  0  0
   38.3770   30.6750   40.3150 C   0  0  1  0  0  0  0  0  0  0  0  0
   39.6790   30.8290   40.8310 O   0  0  0  0  0  0  0  0  0  0  0  0
   37.3360   30.4710   41.4020 C   0  0  0  0  0  0  0  0  0  0  0  0
   37.6200   29.2040   42.1730 C   0  0  0  0  0  0  0  0  0  0  0  0
   47.4630   34.6150   42.0020 O   0  0  0  0  0  0  0  0  0  0  0  0
   48.6330   35.1430   41.4060 C   0  0  0  0  0  0  0  0  0  0  0  0
   49.7150   34.3310   41.6190 F   0  0  0  0  0  0  0  0  0  0  0  0
   48.3550   35.2890   40.0330 F   0  0  0  0  0  0  0  0  0  0  0  0
   48.8960   36.3740   41.9920 F   0  0  0  0  0  0  0  0  0  0  0  0
   46.3580   32.1859   37.8738 H   0  0  0  0  0  0  0  0  0  0  0  0
   44.6146   32.4062   37.5657 H   0  0  0  0  0  0  0  0  0  0  0  0
   42.1415   33.2978   39.1672 H   0  0  0  0  0  0  0  0  0  0  0  0
   42.8591   34.4802   38.0210 H   0  0  0  0  0  0  0  0  0  0  0  0
   43.4217   32.7742   38.0210 H   0  0  0  0  0  0  0  0  0  0  0  0
   40.2833   35.9642   39.7878 H   0  0  0  0  0  0  0  0  0  0  0  0
   41.8531   32.4452   41.7555 H   0  0  0  0  0  0  0  0  0  0  0  0
   38.3539   34.5687   38.9520 H   0  0  0  0  0  0  0  0  0  0  0  0
   38.3226   29.7667   39.6970 H   0  0  0  0  0  0  0  0  0  0  0  0
   37.3596   31.3277   42.0916 H   0  0  0  0  0  0  0  0  0  0  0  0
   36.3438   30.3888   40.9344 H   0  0  0  0  0  0  0  0  0  0  0  0
   37.5731   29.4130   43.2519 H   0  0  0  0  0  0  0  0  0  0  0  0
   36.8705   28.4416   41.9143 H   0  0  0  0  0  0  0  0  0  0  0  0
   38.6233   28.8345   41.9143 H   0  0  0  0  0  0  0  0  0  0  0  0
  1  9  1  0
  1  6  1  0
  2  1  2  0
  3  2  1  0
  3  4  2  0
  4  5  1  0
  5  6  2  0
  5 21  1  0
  7  3  1  0
  8  2  1  0
 10 11  2  0
 11 12  1  0
 11  9  1  0
 13 18  1  0
 13 12  2  0
 14 13  1  0
 15 14  2  0
 15 10  1  0
 16 14  1  0
 16 17  1  0
 17 18  1  0
 17 19  1  0
 19 20  1  0
 22 23  1  0
 22 25  1  0
 22 21  1  0
 24 22  1  0
  7 26  1  0
  7 27  1  0
  8 28  1  0
  8 29  1  0
  8 30  1  0
 10 31  1  0
 12 32  1  0
 15 33  1  0
 17 34  1  6
 19 35  1  0
 19 36  1  0
 20 37  1  0
 20 38  1  0
 20 39  1  0
M  ISO  8  28   8  29   8  30   8  31  14  32  14  33  14  34  13  35   8
M  ISO  4  36   8  37   8  38   8  39   8
M  END
>  <minimizedAffinity>  (1) 
-5.88879633

>  <minimizedRMSD>  (1) 
0.806086361

$$$$
