
     RDKit          3D

 45 48  0  0  1  0  0  0  0  0999 V2000
   42.6920   35.3610   41.4360 S   0  0  0  0  0  0  0  0  0  0  0  0
   40.2900   35.1230   40.3290 C   0  0  0  0  0  0  0  0  0  0  0  0
   41.3500   34.3500   40.8140 C   0  0  0  0  0  0  0  0  0  0  0  0
   41.3030   32.9720   40.7710 C   0  0  0  0  0  0  0  0  0  0  0  0
   40.2120   32.3330   40.2500 C   0  0  0  0  0  0  0  0  0  0  0  0
   39.1610   33.0800   39.7680 C   0  0  0  0  0  0  0  0  0  0  0  0
   39.1760   34.4470   39.7970 C   0  0  0  0  0  0  0  0  0  0  0  0
   38.1950   32.1570   39.3000 O   0  0  0  0  0  0  0  0  0  0  0  0
   38.5440   30.9070   39.7530 C   0  0  1  0  0  0  0  0  0  0  0  0
   39.9110   30.9800   40.0870 O   0  0  0  0  0  0  0  0  0  0  0  0
   37.8230   30.3940   40.8740 N   0  0  0  0  0  0  0  0  0  0  0  0
   36.6810   29.5980   40.5580 C   0  0  0  0  0  0  0  0  0  0  0  0
   37.1280   28.1610   40.7180 C   0  0  0  0  0  0  0  0  0  0  0  0
   38.0750   28.2390   41.8690 C   0  0  0  0  0  0  0  0  0  0  0  0
   38.6470   29.6290   41.7850 C   0  0  0  0  0  0  0  0  0  0  0  0
   44.2880   34.6230   40.9460 C   0  0  0  0  0  0  0  0  0  0  0  0
   44.3240   34.0690   39.7190 C   0  0  0  0  0  0  0  0  0  0  0  0
   45.5460   33.4910   39.3630 C   0  0  0  0  0  0  0  0  0  0  0  0
   46.5970   33.5000   40.1980 N   0  0  0  0  0  0  0  0  0  0  0  0
   46.5100   34.0680   41.4150 C   0  0  0  0  0  0  0  0  0  0  0  0
   45.3430   34.6170   41.7530 N   0  0  0  0  0  0  0  0  0  0  0  0
   45.6950   32.8530   38.0770 N   0  0  0  0  0  0  0  0  0  0  0  0
   43.3470   33.9320   38.5930 C   0  0  0  0  0  0  0  0  0  0  0  0
   47.5330   34.1270   42.3410 O   0  0  0  0  0  0  0  0  0  0  0  0
   48.7730   34.6500   41.9050 C   0  0  0  0  0  0  0  0  0  0  0  0
   49.5020   33.7210   41.2340 F   0  0  0  0  0  0  0  0  0  0  0  0
   48.4860   35.7750   41.1140 F   0  0  0  0  0  0  0  0  0  0  0  0
   49.5010   35.0170   43.0320 F   0  0  0  0  0  0  0  0  0  0  0  0
   40.3258   36.2219   40.3622 H   0  0  0  0  0  0  0  0  0  0  0  0
   42.1481   32.3837   41.1581 H   0  0  0  0  0  0  0  0  0  0  0  0
   38.3201   35.0166   39.4058 H   0  0  0  0  0  0  0  0  0  0  0  0
   38.2970   30.2037   38.9441 H   0  0  0  0  0  0  0  0  0  0  0  0
   35.8543   29.8218   41.2483 H   0  0  0  0  0  0  0  0  0  0  0  0
   36.3145   29.7988   39.5405 H   0  0  0  0  0  0  0  0  0  0  0  0
   36.2765   27.5039   40.9486 H   0  0  0  0  0  0  0  0  0  0  0  0
   37.5804   27.7404   39.8078 H   0  0  0  0  0  0  0  0  0  0  0  0
   37.5441   28.0928   42.8213 H   0  0  0  0  0  0  0  0  0  0  0  0
   38.8518   27.4612   41.8282 H   0  0  0  0  0  0  0  0  0  0  0  0
   39.6798   29.5862   41.4088 H   0  0  0  0  0  0  0  0  0  0  0  0
   38.6584   30.0997   42.7791 H   0  0  0  0  0  0  0  0  0  0  0  0
   46.5954   32.4271   37.8146 H   0  0  0  0  0  0  0  0  0  0  0  0
   44.9010   32.8236   37.4216 H   0  0  0  0  0  0  0  0  0  0  0  0
   42.3352   33.7901   39.0007 H   0  0  0  0  0  0  0  0  0  0  0  0
   43.3692   34.8420   37.9755 H   0  0  0  0  0  0  0  0  0  0  0  0
   43.6187   33.0632   37.9755 H   0  0  0  0  0  0  0  0  0  0  0  0
  2  3  2  0
  3  1  1  0
  4  3  1  0
  5  4  2  0
  6  7  2  0
  6  5  1  0
  7  2  1  0
  8  9  1  0
  8  6  1  0
  9 10  1  0
  9 11  1  0
 10  5  1  0
 11 12  1  0
 11 15  1  0
 12 13  1  0
 13 14  1  0
 15 14  1  0
 16  1  1  0
 16 21  1  0
 17 16  2  0
 18 17  1  0
 18 19  2  0
 19 20  1  0
 20 21  2  0
 20 24  1  0
 22 18  1  0
 23 17  1  0
 25 24  1  0
 25 28  1  0
 26 25  1  0
 27 25  1  0
  2 29  1  0
  4 30  1  0
  7 31  1  0
  9 32  1  6
 12 33  1  0
 12 34  1  0
 13 35  1  0
 13 36  1  0
 14 37  1  0
 14 38  1  0
 15 39  1  0
 15 40  1  0
 22 41  1  0
 22 42  1  0
 23 43  1  0
 23 44  1  0
 23 45  1  0
M  ISO  8  29  14  30  14  31  14  32  13  33  13  34  13  35  13  36  13
M  ISO  7  37  13  38  13  39  13  40  13  43   8  44   8  45   8
M  END
>  <minimizedAffinity>  (1) 
-5.66921043

>  <minimizedRMSD>  (1) 
1.53108096

$$$$
