
     RDKit          3D

 27 28  0  0  0  0  0  0  0  0999 V2000
   44.6310   35.2640   45.5250 C   0  0  0  0  0  0  0  0  0  0  0  0
   45.0820   35.3560   44.2110 C   0  0  0  0  0  0  0  0  0  0  0  0
   45.9710   34.3930   43.7480 C   0  0  0  0  0  0  0  0  0  0  0  0
   46.3390   33.4210   44.6140 N   0  0  0  0  0  0  0  0  0  0  0  0
   45.8950   33.3420   45.8840 C   0  0  0  0  0  0  0  0  0  0  0  0
   45.0350   34.2750   46.3300 N   0  0  0  0  0  0  0  0  0  0  0  0
   46.3130   32.2980   46.7580 N   0  0  0  0  0  0  0  0  0  0  0  0
   47.2720   32.5620   47.8120 C   0  0  0  0  0  0  0  0  0  0  0  0
   47.0790   31.5120   48.8840 C   0  0  0  0  0  0  0  0  0  0  0  0
   45.5600   31.3620   49.0320 C   0  0  0  0  0  0  0  0  0  0  0  0
   45.0280   30.5930   47.8680 C   0  0  0  0  0  0  0  0  0  0  0  0
   45.8010   30.9720   46.6210 C   0  0  0  0  0  0  0  0  0  0  0  0
   44.5800   36.4580   43.4450 N   0  0  0  0  0  0  0  0  0  0  0  0
   43.9290   36.0191   45.9085 H   0  0  0  0  0  0  0  0  0  0  0  0
   46.3595   34.4201   42.7193 H   0  0  0  0  0  0  0  0  0  0  0  0
   48.2947   32.5042   47.4110 H   0  0  0  0  0  0  0  0  0  0  0  0
   47.1198   33.5690   48.2276 H   0  0  0  0  0  0  0  0  0  0  0  0
   47.5325   30.5584   48.5758 H   0  0  0  0  0  0  0  0  0  0  0  0
   47.5577   31.7996   49.8317 H   0  0  0  0  0  0  0  0  0  0  0  0
   45.3323   30.8237   49.9639 H   0  0  0  0  0  0  0  0  0  0  0  0
   45.0913   32.3566   49.0638 H   0  0  0  0  0  0  0  0  0  0  0  0
   45.1413   29.5153   48.0570 H   0  0  0  0  0  0  0  0  0  0  0  0
   43.9629   30.8287   47.7268 H   0  0  0  0  0  0  0  0  0  0  0  0
   45.1329   30.9261   45.7483 H   0  0  0  0  0  0  0  0  0  0  0  0
   46.6370   30.2706   46.4827 H   0  0  0  0  0  0  0  0  0  0  0  0
   44.8756   36.5819   42.4661 H   0  0  0  0  0  0  0  0  0  0  0  0
   43.9236   37.1263   43.8732 H   0  0  0  0  0  0  0  0  0  0  0  0
  1  6  2  0
  2  1  1  0
  3  2  2  0
  3  4  1  0
  4  5  2  0
  5  6  1  0
  5  7  1  0
  7  8  1  0
  8  9  1  0
  9 10  1  0
 11 10  1  0
 12  7  1  0
 12 11  1  0
 13  2  1  0
  1 14  1  0
  3 15  1  0
  8 16  1  0
  8 17  1  0
  9 18  1  0
  9 19  1  0
 10 20  1  0
 10 21  1  0
 11 22  1  0
 11 23  1  0
 12 24  1  0
 12 25  1  0
 13 26  1  0
 13 27  1  0
M  ISO  8  14  14  15  14  16  13  17  13  18  13  19  13  20  13  21  13
M  ISO  4  22  13  23  13  24  13  25  13
M  END
>  <minimizedAffinity>  (1) 
-5.03966379

>  <minimizedRMSD>  (1) 
1.32514274

$$$$
