
     RDKit          3D

 22 23  0  0  0  0  0  0  0  0999 V2000
   44.5080   35.6210   45.1180 C   0  0  0  0  0  0  0  0  0  0  0  0
   45.1390   35.5990   43.8680 C   0  0  0  0  0  0  0  0  0  0  0  0
   46.0420   34.5730   43.6130 C   0  0  0  0  0  0  0  0  0  0  0  0
   46.2580   33.6570   44.5900 N   0  0  0  0  0  0  0  0  0  0  0  0
   45.6320   33.7070   45.7850 C   0  0  0  0  0  0  0  0  0  0  0  0
   44.7540   34.6870   46.0610 N   0  0  0  0  0  0  0  0  0  0  0  0
   47.3730   31.5210   44.8920 Cl  0  0  0  0  0  0  0  0  0  0  0  0
   46.7060   31.6060   46.5160 C   0  0  0  0  0  0  0  0  0  0  0  0
   45.8890   32.6990   46.8180 C   0  0  0  0  0  0  0  0  0  0  0  0
   45.3740   32.7610   48.0780 C   0  0  0  0  0  0  0  0  0  0  0  0
   45.6360   31.7930   49.0310 C   0  0  0  0  0  0  0  0  0  0  0  0
   46.4480   30.7030   48.7310 C   0  0  0  0  0  0  0  0  0  0  0  0
   46.9890   30.6140   47.4480 C   0  0  0  0  0  0  0  0  0  0  0  0
   44.8020   36.6350   42.9550 N   0  0  0  0  0  0  0  0  0  0  0  0
   43.7896   36.4243   45.3382 H   0  0  0  0  0  0  0  0  0  0  0  0
   46.5656   34.5060   42.6479 H   0  0  0  0  0  0  0  0  0  0  0  0
   44.7278   33.6097   48.3466 H   0  0  0  0  0  0  0  0  0  0  0  0
   45.1982   31.8856   50.0359 H   0  0  0  0  0  0  0  0  0  0  0  0
   46.6579   29.9313   49.4863 H   0  0  0  0  0  0  0  0  0  0  0  0
   47.6343   29.7657   47.1761 H   0  0  0  0  0  0  0  0  0  0  0  0
   45.2393   36.6624   42.0229 H   0  0  0  0  0  0  0  0  0  0  0  0
   44.1205   37.3583   43.2256 H   0  0  0  0  0  0  0  0  0  0  0  0
  1  6  2  0
  2  1  1  0
  3  2  2  0
  3  4  1  0
  4  5  2  0
  5  6  1  0
  5  9  1  0
  7  8  1  0
  8  9  2  0
  8 13  1  0
  9 10  1  0
 10 11  2  0
 12 11  1  0
 13 12  2  0
 14  2  1  0
  1 15  1  0
  3 16  1  0
 10 17  1  0
 11 18  1  0
 12 19  1  0
 13 20  1  0
 14 21  1  0
 14 22  1  0
M  ISO  6  15  14  16  14  17  14  18  14  19  14  20  14
M  END
>  <minimizedAffinity>  (1) 
-5.01283979

>  <minimizedRMSD>  (1) 
0.940462172

$$$$
