
     RDKit          3D

 18 18  0  0  0  0  0  0  0  0999 V2000
   44.5670   35.5230   45.0270 C   0  0  0  0  0  0  0  0  0  0  0  0
   45.1030   35.6620   43.7380 C   0  0  0  0  0  0  0  0  0  0  0  0
   46.1060   34.7840   43.3470 C   0  0  0  0  0  0  0  0  0  0  0  0
   46.5090   33.8390   44.2440 N   0  0  0  0  0  0  0  0  0  0  0  0
   45.9840   33.7210   45.4750 C   0  0  0  0  0  0  0  0  0  0  0  0
   44.9980   34.5740   45.8760 N   0  0  0  0  0  0  0  0  0  0  0  0
   44.5550   36.7100   42.9410 N   0  0  0  0  0  0  0  0  0  0  0  0
   46.5480   32.6890   46.2130 O   0  0  0  0  0  0  0  0  0  0  0  0
   46.8540   32.0210   48.7110 O   0  0  0  0  0  0  0  0  0  0  0  0
   45.8320   32.0270   47.6020 P   0  0  0  0  0  0  0  0  0  0  0  0
   45.4740   30.3920   47.2580 O   0  0  0  0  0  0  0  0  0  0  0  0
   44.4370   32.8610   48.0680 O   0  0  0  0  0  0  0  0  0  0  0  0
   43.7717   36.2099   45.3521 H   0  0  0  0  0  0  0  0  0  0  0  0
   46.5601   34.8488   42.3472 H   0  0  0  0  0  0  0  0  0  0  0  0
   44.9042   36.8661   41.9847 H   0  0  0  0  0  0  0  0  0  0  0  0
   43.8100   37.3108   43.3217 H   0  0  0  0  0  0  0  0  0  0  0  0
   45.3647   29.8927   48.1058 H   0  0  0  0  0  0  0  0  0  0  0  0
   44.3855   32.8918   49.0562 H   0  0  0  0  0  0  0  0  0  0  0  0
  1  6  2  0
  2  1  1  0
  3  2  2  0
  3  4  1  0
  4  5  2  0
  5  6  1  0
  5  8  1  0
  7  2  1  0
  8 10  1  0
 10 12  1  0
 10  9  2  0
 11 10  1  0
  1 13  1  0
  3 14  1  0
  7 15  1  0
  7 16  1  0
 11 17  1  0
 12 18  1  0
M  ISO  4  13  14  14  14  17   3  18   3
M  END
>  <minimizedAffinity>  (1) 
-4.46641922

>  <minimizedRMSD>  (1) 
1.78964984

$$$$
