
     RDKit          3D

 29 31  0  0  0  0  0  0  0  0999 V2000
   45.9860   32.6890   46.6930 C   0  0  0  0  0  0  0  0  0  0  0  0
   45.4980   32.9210   47.9940 C   0  0  0  0  0  0  0  0  0  0  0  0
   45.7410   32.0860   49.0610 C   0  0  0  0  0  0  0  0  0  0  0  0
   46.4840   30.9680   48.9040 C   0  0  0  0  0  0  0  0  0  0  0  0
   46.9910   30.6810   47.6440 C   0  0  0  0  0  0  0  0  0  0  0  0
   47.7370   29.5390   47.5040 C   0  0  0  0  0  0  0  0  0  0  0  0
   48.2630   29.1870   46.2910 C   0  0  0  0  0  0  0  0  0  0  0  0
   47.9970   30.0320   45.2500 C   0  0  0  0  0  0  0  0  0  0  0  0
   47.2490   31.1580   45.4480 C   0  0  0  0  0  0  0  0  0  0  0  0
   46.7200   31.5430   46.6170 C   0  0  0  0  0  0  0  0  0  0  0  0
   44.5070   35.5490   45.1160 C   0  0  0  0  0  0  0  0  0  0  0  0
   45.1850   35.6340   43.8760 C   0  0  0  0  0  0  0  0  0  0  0  0
   46.1640   34.6750   43.5550 C   0  0  0  0  0  0  0  0  0  0  0  0
   46.3960   33.7210   44.4690 N   0  0  0  0  0  0  0  0  0  0  0  0
   45.7900   33.6230   45.6060 C   0  0  0  0  0  0  0  0  0  0  0  0
   44.8440   34.5510   45.9120 N   0  0  0  0  0  0  0  0  0  0  0  0
   44.8200   36.7130   43.0180 N   0  0  0  0  0  0  0  0  0  0  0  0
   47.1510   31.7910   44.2180 O   0  0  0  0  0  0  0  0  0  0  0  0
   44.8884   33.8201   48.1670 H   0  0  0  0  0  0  0  0  0  0  0  0
   45.3268   32.3308   50.0502 H   0  0  0  0  0  0  0  0  0  0  0  0
   46.6825   30.3005   49.7555 H   0  0  0  0  0  0  0  0  0  0  0  0
   47.9150   28.8969   48.3792 H   0  0  0  0  0  0  0  0  0  0  0  0
   48.8656   28.2760   46.1609 H   0  0  0  0  0  0  0  0  0  0  0  0
   48.3874   29.8041   44.2472 H   0  0  0  0  0  0  0  0  0  0  0  0
   43.7362   36.2796   45.4026 H   0  0  0  0  0  0  0  0  0  0  0  0
   46.7118   34.7063   42.6016 H   0  0  0  0  0  0  0  0  0  0  0  0
   45.2814   36.8227   42.1037 H   0  0  0  0  0  0  0  0  0  0  0  0
   44.0949   37.3826   43.3126 H   0  0  0  0  0  0  0  0  0  0  0  0
   46.6442   32.6375   44.1359 H   0  0  0  0  0  0  0  0  0  0  0  0
  1  2  2  0
  2  3  1  0
  4  3  2  0
  5  4  1  0
  6  5  2  0
  7  6  1  0
  8  9  1  0
  8  7  2  0
  9 10  2  0
 10  1  1  0
 10  5  1  0
 11 16  2  0
 12 11  1  0
 13 12  2  0
 13 14  1  0
 14 15  2  0
 15 16  1  0
 15  1  1  0
 17 12  1  0
 18  9  1  0
  2 19  1  0
  3 20  1  0
  4 21  1  0
  6 22  1  0
  7 23  1  0
  8 24  1  0
 11 25  1  0
 13 26  1  0
 17 27  1  0
 17 28  1  0
 18 29  1  0
M  ISO  8  19  14  20  14  21  14  22  14  23  14  24  14  25  14  26  14
M  ISO  1  29   3
M  END
>  <minimizedAffinity>  (1) 
-5.67296124

>  <minimizedRMSD>  (1) 
0.156168506

$$$$
