
     RDKit          3D

 39 42  0  0  0  0  0  0  0  0999 V2000
   45.9550   32.7680   46.4110 C   0  0  0  0  0  0  0  0  0  0  0  0
   45.4160   32.8800   47.7130 C   0  0  0  0  0  0  0  0  0  0  0  0
   45.6330   31.9560   48.7070 C   0  0  0  0  0  0  0  0  0  0  0  0
   46.3940   30.8700   48.4750 C   0  0  0  0  0  0  0  0  0  0  0  0
   46.9530   30.7000   47.2140 C   0  0  0  0  0  0  0  0  0  0  0  0
   47.7170   29.5930   47.0090 C   0  0  0  0  0  0  0  0  0  0  0  0
   48.2940   29.3730   45.7830 C   0  0  0  0  0  0  0  0  0  0  0  0
   48.0520   30.3270   44.7930 C   0  0  0  0  0  0  0  0  0  0  0  0
   47.2890   31.3880   45.0790 C   0  0  0  0  0  0  0  0  0  0  0  0
   46.7160   31.6380   46.2500 C   0  0  0  0  0  0  0  0  0  0  0  0
   44.4790   35.7630   45.0860 C   0  0  0  0  0  0  0  0  0  0  0  0
   45.1020   35.8810   43.8070 C   0  0  0  0  0  0  0  0  0  0  0  0
   46.0440   34.9000   43.3890 C   0  0  0  0  0  0  0  0  0  0  0  0
   46.2940   33.8990   44.2470 N   0  0  0  0  0  0  0  0  0  0  0  0
   45.7370   33.7790   45.4100 C   0  0  0  0  0  0  0  0  0  0  0  0
   44.8330   34.7220   45.8070 N   0  0  0  0  0  0  0  0  0  0  0  0
   44.7200   37.0110   43.0290 N   0  0  0  0  0  0  0  0  0  0  0  0
   47.2380   32.1200   43.9210 O   0  0  0  0  0  0  0  0  0  0  0  0
   48.1460   32.0240   42.8720 C   0  0  0  0  0  0  0  0  0  0  0  0
   49.3410   32.6930   42.8110 C   0  0  0  0  0  0  0  0  0  0  0  0
   50.2470   32.6160   41.7980 C   0  0  0  0  0  0  0  0  0  0  0  0
   49.8860   31.7700   40.7420 C   0  0  0  0  0  0  0  0  0  0  0  0
   48.6920   31.0780   40.7630 C   0  0  0  0  0  0  0  0  0  0  0  0
   47.8140   31.1970   41.8200 C   0  0  0  0  0  0  0  0  0  0  0  0
   44.7889   33.7540   47.9430 H   0  0  0  0  0  0  0  0  0  0  0  0
   45.1817   32.1049   49.6991 H   0  0  0  0  0  0  0  0  0  0  0  0
   46.5703   30.1301   49.2696 H   0  0  0  0  0  0  0  0  0  0  0  0
   47.8725   28.8736   47.8265 H   0  0  0  0  0  0  0  0  0  0  0  0
   48.9172   28.4874   45.5899 H   0  0  0  0  0  0  0  0  0  0  0  0
   48.4841   30.2076   43.7885 H   0  0  0  0  0  0  0  0  0  0  0  0
   43.7461   36.4995   45.4470 H   0  0  0  0  0  0  0  0  0  0  0  0
   46.5429   34.9592   42.4104 H   0  0  0  0  0  0  0  0  0  0  0  0
   45.1315   37.1568   42.0961 H   0  0  0  0  0  0  0  0  0  0  0  0
   44.0323   37.6825   43.3992 H   0  0  0  0  0  0  0  0  0  0  0  0
   49.5901   33.3511   43.6565 H   0  0  0  0  0  0  0  0  0  0  0  0
   51.1931   33.1770   41.8081 H   0  0  0  0  0  0  0  0  0  0  0  0
   50.5639   31.6553   39.8833 H   0  0  0  0  0  0  0  0  0  0  0  0
   48.4357   30.4189   39.9205 H   0  0  0  0  0  0  0  0  0  0  0  0
   46.8647   30.6413   41.8236 H   0  0  0  0  0  0  0  0  0  0  0  0
  1  2  2  0
  2  3  1  0
  4  3  2  0
  5  4  1  0
  6  5  2  0
  7  6  1  0
  8  9  1  0
  8  7  2  0
  9 10  2  0
 10  1  1  0
 10  5  1  0
 11 16  2  0
 12 11  1  0
 13 12  2  0
 13 14  1  0
 14 15  2  0
 15 16  1  0
 15  1  1  0
 17 12  1  0
 18  9  1  0
 19 18  1  0
 20 19  2  0
 21 20  1  0
 22 23  1  0
 22 21  2  0
 23 24  2  0
 24 19  1  0
  2 25  1  0
  3 26  1  0
  4 27  1  0
  6 28  1  0
  7 29  1  0
  8 30  1  0
 11 31  1  0
 13 32  1  0
 17 33  1  0
 17 34  1  0
 20 35  1  0
 21 36  1  0
 22 37  1  0
 23 38  1  0
 24 39  1  0
M  ISO  8  25  14  26  14  27  14  28  14  29  14  30  14  31  14  32  14
M  ISO  5  35  14  36  14  37  14  38  14  39  14
M  END
>  <minimizedAffinity>  (1) 
-6.00918627

>  <minimizedRMSD>  (1) 
0.779112697

$$$$
