
     RDKit          3D

 28 30  0  0  0  0  0  0  0  0999 V2000
   45.6590   35.4290   42.7350 C   0  0  0  0  0  0  0  0  0  0  0  0
   46.9230   35.5400   42.1160 C   0  0  0  0  0  0  0  0  0  0  0  0
   47.9090   34.6350   42.5500 C   0  0  0  0  0  0  0  0  0  0  0  0
   47.5950   33.7280   43.5180 N   0  0  0  0  0  0  0  0  0  0  0  0
   46.3660   33.6700   44.0740 C   0  0  0  0  0  0  0  0  0  0  0  0
   45.4090   34.5130   43.6840 N   0  0  0  0  0  0  0  0  0  0  0  0
   46.1010   32.6700   45.1050 C   0  0  0  0  0  0  0  0  0  0  0  0
   45.9780   31.3380   44.7470 C   0  0  0  0  0  0  0  0  0  0  0  0
   45.7270   30.3300   45.6650 C   0  0  0  0  0  0  0  0  0  0  0  0
   45.6050   30.7320   46.9840 C   0  0  0  0  0  0  0  0  0  0  0  0
   45.3610   29.7640   47.8770 N   0  0  0  0  0  0  0  0  0  0  0  0
   45.2280   30.0670   49.1840 C   0  0  0  0  0  0  0  0  0  0  0  0
   45.3450   31.3950   49.5850 C   0  0  0  0  0  0  0  0  0  0  0  0
   45.5930   32.4190   48.7000 C   0  0  0  0  0  0  0  0  0  0  0  0
   45.7260   32.0600   47.3550 C   0  0  0  0  0  0  0  0  0  0  0  0
   45.9740   33.0410   46.4260 C   0  0  0  0  0  0  0  0  0  0  0  0
   49.2050   34.7750   41.8920 C   0  0  0  0  0  0  0  0  0  0  0  0
   50.1450   35.2070   42.8230 F   0  0  0  0  0  0  0  0  0  0  0  0
   49.0820   35.8210   40.9770 F   0  0  0  0  0  0  0  0  0  0  0  0
   49.6680   33.6400   41.3130 F   0  0  0  0  0  0  0  0  0  0  0  0
   44.8542   36.1142   42.4303 H   0  0  0  0  0  0  0  0  0  0  0  0
   47.1255   36.2914   41.3385 H   0  0  0  0  0  0  0  0  0  0  0  0
   46.0843   31.0675   43.6861 H   0  0  0  0  0  0  0  0  0  0  0  0
   45.6308   29.2764   45.3640 H   0  0  0  0  0  0  0  0  0  0  0  0
   45.0299   29.2764   49.9227 H   0  0  0  0  0  0  0  0  0  0  0  0
   45.2347   31.6355   50.6527 H   0  0  0  0  0  0  0  0  0  0  0  0
   45.6819   33.4638   49.0326 H   0  0  0  0  0  0  0  0  0  0  0  0
   46.0687   34.0944   46.7284 H   0  0  0  0  0  0  0  0  0  0  0  0
  1  6  2  0
  2  3  2  0
  2  1  1  0
  3  4  1  0
  4  5  2  0
  5  7  1  0
  6  5  1  0
  7 16  1  0
  8  7  2  0
  8  9  1  0
  9 10  2  0
 10 15  1  0
 10 11  1  0
 11 12  2  0
 12 13  1  0
 14 13  2  0
 15 14  1  0
 16 15  2  0
 17  3  1  0
 17 18  1  0
 19 17  1  0
 20 17  1  0
  1 21  1  0
  2 22  1  0
  8 23  1  0
  9 24  1  0
 12 25  1  0
 13 26  1  0
 14 27  1  0
 16 28  1  0
M  ISO  8  21  14  22  14  23  14  24  14  25  14  26  14  27  14  28  14
M  END
>  <minimizedAffinity>  (1) 
-6.09530497

>  <minimizedRMSD>  (1) 
1.87727261

$$$$
