
     RDKit          3D

 44 47  0  0  0  0  0  0  0  0999 V2000
   45.9620   32.7260   46.5710 C   0  0  0  0  0  0  0  0  0  0  0  0
   45.4360   32.8690   47.8720 C   0  0  0  0  0  0  0  0  0  0  0  0
   45.6630   31.9670   48.8790 C   0  0  0  0  0  0  0  0  0  0  0  0
   46.4170   30.8750   48.6650 C   0  0  0  0  0  0  0  0  0  0  0  0
   46.9560   30.6830   47.4140 C   0  0  0  0  0  0  0  0  0  0  0  0
   47.7240   29.5610   47.2170 C   0  0  0  0  0  0  0  0  0  0  0  0
   48.2860   29.3130   45.9900 C   0  0  0  0  0  0  0  0  0  0  0  0
   48.0360   30.2440   44.9800 C   0  0  0  0  0  0  0  0  0  0  0  0
   47.2780   31.3160   45.2450 C   0  0  0  0  0  0  0  0  0  0  0  0
   46.7150   31.6030   46.4160 C   0  0  0  0  0  0  0  0  0  0  0  0
   44.4480   35.6720   45.1650 C   0  0  0  0  0  0  0  0  0  0  0  0
   45.0860   35.7790   43.8910 C   0  0  0  0  0  0  0  0  0  0  0  0
   46.0600   34.8080   43.4990 C   0  0  0  0  0  0  0  0  0  0  0  0
   46.3140   33.8330   44.3830 N   0  0  0  0  0  0  0  0  0  0  0  0
   45.7380   33.7240   45.5480 C   0  0  0  0  0  0  0  0  0  0  0  0
   44.8060   34.6510   45.9270 N   0  0  0  0  0  0  0  0  0  0  0  0
   44.6960   36.8780   43.0790 N   0  0  0  0  0  0  0  0  0  0  0  0
   47.2060   32.0210   44.1050 O   0  0  0  0  0  0  0  0  0  0  0  0
   48.9410   31.4760   40.4350 N   0  0  0  0  0  0  0  0  0  0  0  0
   47.4950   31.6070   40.4310 C   0  0  0  0  0  0  0  0  0  0  0  0
   46.9790   31.3290   41.7940 C   0  0  0  0  0  0  0  0  0  0  0  0
   47.8830   31.7120   42.9010 C   0  0  0  0  0  0  0  0  0  0  0  0
   49.0580   32.5620   42.6270 C   0  0  0  0  0  0  0  0  0  0  0  0
   49.3930   32.6600   41.1850 C   0  0  0  0  0  0  0  0  0  0  0  0
   44.8123   33.7486   48.0894 H   0  0  0  0  0  0  0  0  0  0  0  0
   45.2235   32.1387   49.8727 H   0  0  0  0  0  0  0  0  0  0  0  0
   46.5991   30.1507   49.4726 H   0  0  0  0  0  0  0  0  0  0  0  0
   47.8892   28.8581   48.0469 H   0  0  0  0  0  0  0  0  0  0  0  0
   48.9050   28.4216   45.8104 H   0  0  0  0  0  0  0  0  0  0  0  0
   48.4582   30.0983   43.9747 H   0  0  0  0  0  0  0  0  0  0  0  0
   43.6957   36.4029   45.4964 H   0  0  0  0  0  0  0  0  0  0  0  0
   46.5719   34.8584   42.5267 H   0  0  0  0  0  0  0  0  0  0  0  0
   45.1210   37.0082   42.1498 H   0  0  0  0  0  0  0  0  0  0  0  0
   43.9883   37.5444   43.4196 H   0  0  0  0  0  0  0  0  0  0  0  0
   49.3138   31.4843   39.4749 H   0  0  0  0  0  0  0  0  0  0  0  0
   47.2185   32.6294   40.1338 H   0  0  0  0  0  0  0  0  0  0  0  0
   47.0599   30.8923   39.7169 H   0  0  0  0  0  0  0  0  0  0  0  0
   46.0353   31.8801   41.9194 H   0  0  0  0  0  0  0  0  0  0  0  0
   46.8628   30.2371   41.8592 H   0  0  0  0  0  0  0  0  0  0  0  0
   48.4064   30.7560   43.0495 H   0  0  0  0  0  0  0  0  0  0  0  0
   48.8521   33.5738   43.0063 H   0  0  0  0  0  0  0  0  0  0  0  0
   49.9190   32.0961   43.1287 H   0  0  0  0  0  0  0  0  0  0  0  0
   50.4839   32.7533   41.0788 H   0  0  0  0  0  0  0  0  0  0  0  0
   48.8781   33.5410   40.7743 H   0  0  0  0  0  0  0  0  0  0  0  0
  1  2  2  0
  2  3  1  0
  4  3  2  0
  5  4  1  0
  6  5  2  0
  7  6  1  0
  8  9  1  0
  8  7  2  0
  9 10  2  0
 10  1  1  0
 10  5  1  0
 11 16  2  0
 12 11  1  0
 13 12  2  0
 13 14  1  0
 14 15  2  0
 15 16  1  0
 15  1  1  0
 17 12  1  0
 18  9  1  0
 19 24  1  0
 20 19  1  0
 20 21  1  0
 21 22  1  0
 22 18  1  0
 23 22  1  0
 24 23  1  0
  2 25  1  0
  3 26  1  0
  4 27  1  0
  6 28  1  0
  7 29  1  0
  8 30  1  0
 11 31  1  0
 13 32  1  0
 17 33  1  0
 17 34  1  0
 19 35  1  0
 20 36  1  0
 20 37  1  0
 21 38  1  0
 21 39  1  0
 22 40  1  0
 23 41  1  0
 23 42  1  0
 24 43  1  0
 24 44  1  0
M  ISO  8  25  14  26  14  27  14  28  14  29  14  30  14  31  14  32  14
M  ISO  8  35   5  36  13  37  13  38  13  39  13  40  13  41  13  42  13
M  ISO  2  43  13  44  13
M  END
>  <minimizedAffinity>  (1) 
-5.9770937

>  <minimizedRMSD>  (1) 
0.341832757

$$$$
