
     RDKit          3D

 36 39  0  0  0  0  0  0  0  0999 V2000
   45.9680   32.7150   46.6300 C   0  0  0  0  0  0  0  0  0  0  0  0
   45.4590   32.8890   47.9450 C   0  0  0  0  0  0  0  0  0  0  0  0
   45.7120   32.0220   48.9780 C   0  0  0  0  0  0  0  0  0  0  0  0
   46.4820   30.9330   48.7870 C   0  0  0  0  0  0  0  0  0  0  0  0
   47.0060   30.7120   47.5230 C   0  0  0  0  0  0  0  0  0  0  0  0
   47.7800   29.5930   47.3650 C   0  0  0  0  0  0  0  0  0  0  0  0
   48.3230   29.3130   46.1330 C   0  0  0  0  0  0  0  0  0  0  0  0
   48.0460   30.2020   45.0980 C   0  0  0  0  0  0  0  0  0  0  0  0
   47.2750   31.2810   45.3390 C   0  0  0  0  0  0  0  0  0  0  0  0
   46.7320   31.5980   46.5060 C   0  0  0  0  0  0  0  0  0  0  0  0
   44.4410   35.6410   45.2070 C   0  0  0  0  0  0  0  0  0  0  0  0
   45.0920   35.7390   43.9330 C   0  0  0  0  0  0  0  0  0  0  0  0
   46.0640   34.7670   43.5500 C   0  0  0  0  0  0  0  0  0  0  0  0
   46.3220   33.7890   44.4280 N   0  0  0  0  0  0  0  0  0  0  0  0
   45.7350   33.6920   45.5910 C   0  0  0  0  0  0  0  0  0  0  0  0
   44.8000   34.6200   45.9670 N   0  0  0  0  0  0  0  0  0  0  0  0
   44.7060   36.8360   43.1150 N   0  0  0  0  0  0  0  0  0  0  0  0
   47.1670   31.9490   44.1570 O   0  0  0  0  0  0  0  0  0  0  0  0
   47.8660   31.6360   42.9880 C   0  0  0  0  0  0  0  0  0  0  0  0
   48.9740   32.3890   42.6830 C   0  0  0  0  0  0  0  0  0  0  0  0
   49.5530   31.9830   41.5270 C   0  0  0  0  0  0  0  0  0  0  0  0
   48.7740   30.9510   41.1130 C   0  0  0  0  0  0  0  0  0  0  0  0
   47.8420   30.8130   41.9900 O   0  0  0  0  0  0  0  0  0  0  0  0
   44.8275   33.7669   48.1460 H   0  0  0  0  0  0  0  0  0  0  0  0
   45.2821   32.2179   49.9714 H   0  0  0  0  0  0  0  0  0  0  0  0
   46.6895   30.2370   49.6132 H   0  0  0  0  0  0  0  0  0  0  0  0
   47.9659   28.9231   48.2175 H   0  0  0  0  0  0  0  0  0  0  0  0
   48.9501   28.4237   45.9720 H   0  0  0  0  0  0  0  0  0  0  0  0
   48.4531   30.0252   44.0915 H   0  0  0  0  0  0  0  0  0  0  0  0
   43.6869   36.3725   45.5331 H   0  0  0  0  0  0  0  0  0  0  0  0
   46.5776   34.8185   42.5786 H   0  0  0  0  0  0  0  0  0  0  0  0
   45.1361   36.9635   42.1878 H   0  0  0  0  0  0  0  0  0  0  0  0
   43.9962   37.5032   43.4496 H   0  0  0  0  0  0  0  0  0  0  0  0
   49.3455   33.2195   43.3013 H   0  0  0  0  0  0  0  0  0  0  0  0
   50.4477   32.3946   41.0371 H   0  0  0  0  0  0  0  0  0  0  0  0
   48.9127   30.3486   40.2031 H   0  0  0  0  0  0  0  0  0  0  0  0
  1  2  2  0
  2  3  1  0
  4  3  2  0
  5  4  1  0
  6  5  2  0
  7  6  1  0
  8  9  1  0
  8  7  2  0
  9 10  2  0
 10  1  1  0
 10  5  1  0
 11 16  2  0
 12 11  1  0
 13 12  2  0
 13 14  1  0
 14 15  2  0
 15 16  1  0
 15  1  1  0
 17 12  1  0
 18  9  1  0
 19 18  1  0
 20 19  2  0
 21 20  1  0
 22 21  2  0
 22 23  1  0
 23 19  1  0
  2 24  1  0
  3 25  1  0
  4 26  1  0
  6 27  1  0
  7 28  1  0
  8 29  1  0
 11 30  1  0
 13 31  1  0
 17 32  1  0
 17 33  1  0
 20 34  1  0
 21 35  1  0
 22 36  1  0
M  ISO  8  24  14  25  14  26  14  27  14  28  14  29  14  30  14  31  14
M  ISO  3  34  14  35  14  36  14
M  END
>  <minimizedAffinity>  (1) 
-5.7934866

>  <minimizedRMSD>  (1) 
0.359109849

$$$$
