
     RDKit          3D

 29 31  0  0  0  0  0  0  0  0999 V2000
   44.9500   32.9840   41.2280 Cl  0  0  0  0  0  0  0  0  0  0  0  0
   46.4150   33.9080   41.0160 C   0  0  0  0  0  0  0  0  0  0  0  0
   46.8840   34.7250   42.0040 C   0  0  0  0  0  0  0  0  0  0  0  0
   48.0470   35.4070   41.7360 C   0  0  0  0  0  0  0  0  0  0  0  0
   48.7200   35.3000   40.5630 C   0  0  0  0  0  0  0  0  0  0  0  0
   48.2490   34.4840   39.5800 C   0  0  0  0  0  0  0  0  0  0  0  0
   47.0950   33.7950   39.8210 C   0  0  0  0  0  0  0  0  0  0  0  0
   44.4940   35.9010   44.6990 C   0  0  0  0  0  0  0  0  0  0  0  0
   45.2000   35.8320   43.4900 C   0  0  0  0  0  0  0  0  0  0  0  0
   46.1390   34.8190   43.2500 C   0  0  0  0  0  0  0  0  0  0  0  0
   46.3190   33.9190   44.2500 N   0  0  0  0  0  0  0  0  0  0  0  0
   45.6330   34.0010   45.4050 C   0  0  0  0  0  0  0  0  0  0  0  0
   44.7370   34.9650   45.6370 N   0  0  0  0  0  0  0  0  0  0  0  0
   46.5490   32.9090   38.8000 C   0  0  0  0  0  0  0  0  0  0  0  0
   46.9580   31.6130   38.5830 C   0  0  0  0  0  0  0  0  0  0  0  0
   46.4490   30.7840   37.6300 C   0  0  0  0  0  0  0  0  0  0  0  0
   45.4460   31.2380   36.7950 C   0  0  0  0  0  0  0  0  0  0  0  0
   45.0360   32.5290   37.0090 C   0  0  0  0  0  0  0  0  0  0  0  0
   45.5630   33.3170   37.9620 N   0  0  0  0  0  0  0  0  0  0  0  0
   48.4524   36.0731   42.5118 H   0  0  0  0  0  0  0  0  0  0  0  0
   49.6461   35.8724   40.4060 H   0  0  0  0  0  0  0  0  0  0  0  0
   48.7810   34.3831   38.6225 H   0  0  0  0  0  0  0  0  0  0  0  0
   43.7594   36.7000   44.8775 H   0  0  0  0  0  0  0  0  0  0  0  0
   45.0134   36.5884   42.7134 H   0  0  0  0  0  0  0  0  0  0  0  0
   45.8163   33.2480   46.1856 H   0  0  0  0  0  0  0  0  0  0  0  0
   47.7562   31.2169   39.2279 H   0  0  0  0  0  0  0  0  0  0  0  0
   46.8341   29.7589   37.5255 H   0  0  0  0  0  0  0  0  0  0  0  0
   45.0054   30.6055   36.0103 H   0  0  0  0  0  0  0  0  0  0  0  0
   44.2389   32.9387   36.3712 H   0  0  0  0  0  0  0  0  0  0  0  0
  2  1  1  0
  2  3  2  0
  3 10  1  0
  4  3  1  0
  5  4  2  0
  6  7  2  0
  6  5  1  0
  7  2  1  0
  8 13  2  0
  9  8  1  0
 10  9  2  0
 10 11  1  0
 11 12  2  0
 12 13  1  0
 14  7  1  0
 15 14  2  0
 16 15  1  0
 17 18  1  0
 17 16  2  0
 18 19  2  0
 19 14  1  0
  4 20  1  0
  5 21  1  0
  6 22  1  0
  8 23  1  0
  9 24  1  0
 12 25  1  0
 15 26  1  0
 16 27  1  0
 17 28  1  0
 18 29  1  0
M  ISO  8  20  14  21  14  22  14  23  14  24  14  25  14  26  14  27  14
M  ISO  2  28  14  29  14
M  END
>  <minimizedAffinity>  (1) 
-5.45707607

>  <minimizedRMSD>  (1) 
0.269696653

$$$$
