
     RDKit          3D

 27 29  0  0  0  0  0  0  0  0999 V2000
   44.8190   33.0810   41.2040 Cl  0  0  0  0  0  0  0  0  0  0  0  0
   46.3230   33.9410   40.9930 C   0  0  0  0  0  0  0  0  0  0  0  0
   46.8180   34.7320   41.9870 C   0  0  0  0  0  0  0  0  0  0  0  0
   48.0140   35.3670   41.7200 C   0  0  0  0  0  0  0  0  0  0  0  0
   48.6810   35.2340   40.5520 C   0  0  0  0  0  0  0  0  0  0  0  0
   48.1790   34.4400   39.5600 C   0  0  0  0  0  0  0  0  0  0  0  0
   46.9870   33.7920   39.7970 C   0  0  0  0  0  0  0  0  0  0  0  0
   44.4830   35.9530   44.7010 C   0  0  0  0  0  0  0  0  0  0  0  0
   45.1720   35.8780   43.4790 C   0  0  0  0  0  0  0  0  0  0  0  0
   46.0820   34.8560   43.2290 C   0  0  0  0  0  0  0  0  0  0  0  0
   46.2440   33.9570   44.2400 N   0  0  0  0  0  0  0  0  0  0  0  0
   45.5820   34.0370   45.4000 C   0  0  0  0  0  0  0  0  0  0  0  0
   44.7020   35.0330   45.6350 N   0  0  0  0  0  0  0  0  0  0  0  0
   46.4220   32.9320   38.7510 C   0  0  0  0  0  0  0  0  0  0  0  0
   46.7060   31.6060   38.5380 C   0  0  0  0  0  0  0  0  0  0  0  0
   45.9760   31.2220   37.4930 N   0  0  0  0  0  0  0  0  0  0  0  0
   45.2440   32.2290   37.0280 C   0  0  0  0  0  0  0  0  0  0  0  0
   45.5140   33.3140   37.8100 N   0  0  0  0  0  0  0  0  0  0  0  0
   48.4463   36.0142   42.4973 H   0  0  0  0  0  0  0  0  0  0  0  0
   49.6312   35.7668   40.3996 H   0  0  0  0  0  0  0  0  0  0  0  0
   48.7093   34.3221   38.6035 H   0  0  0  0  0  0  0  0  0  0  0  0
   43.7669   36.7678   44.8837 H   0  0  0  0  0  0  0  0  0  0  0  0
   44.9889   36.6400   42.7071 H   0  0  0  0  0  0  0  0  0  0  0  0
   45.7581   33.2775   46.1760 H   0  0  0  0  0  0  0  0  0  0  0  0
   47.4017   30.9819   39.1181 H   0  0  0  0  0  0  0  0  0  0  0  0
   45.9783   30.2710   37.0975 H   0  0  0  0  0  0  0  0  0  0  0  0
   44.5514   32.1943   36.1741 H   0  0  0  0  0  0  0  0  0  0  0  0
  2  1  1  0
  2  3  2  0
  3 10  1  0
  4  3  1  0
  5  4  2  0
  6  7  2  0
  6  5  1  0
  7  2  1  0
  8 13  2  0
  9  8  1  0
 10  9  2  0
 10 11  1  0
 11 12  2  0
 12 13  1  0
 14  7  1  0
 15 14  2  0
 16 15  1  0
 17 16  1  0
 17 18  2  0
 18 14  1  0
  4 19  1  0
  5 20  1  0
  6 21  1  0
  8 22  1  0
  9 23  1  0
 12 24  1  0
 15 25  1  0
 16 26  1  0
 17 27  1  0
M  ISO  8  19  14  20  14  21  14  22  14  23  14  24  14  25  14  26   9
M  ISO  1  27  14
M  END
>  <minimizedAffinity>  (1) 
-5.39086485

>  <minimizedRMSD>  (1) 
0.158853263

$$$$
