
     RDKit          3D

 26 28  0  0  0  0  0  0  0  0999 V2000
   44.8120   33.0660   41.2050 Cl  0  0  0  0  0  0  0  0  0  0  0  0
   46.3140   33.9280   40.9970 C   0  0  0  0  0  0  0  0  0  0  0  0
   46.8300   34.7210   41.9860 C   0  0  0  0  0  0  0  0  0  0  0  0
   48.0190   35.3570   41.7210 C   0  0  0  0  0  0  0  0  0  0  0  0
   48.6770   35.2190   40.5270 C   0  0  0  0  0  0  0  0  0  0  0  0
   48.1560   34.4270   39.5450 C   0  0  0  0  0  0  0  0  0  0  0  0
   46.9720   33.7850   39.7890 C   0  0  0  0  0  0  0  0  0  0  0  0
   44.4790   35.9530   44.6960 C   0  0  0  0  0  0  0  0  0  0  0  0
   45.1800   35.8510   43.4950 C   0  0  0  0  0  0  0  0  0  0  0  0
   46.0920   34.8350   43.2400 C   0  0  0  0  0  0  0  0  0  0  0  0
   46.2720   33.9290   44.2430 N   0  0  0  0  0  0  0  0  0  0  0  0
   45.5880   34.0360   45.4050 C   0  0  0  0  0  0  0  0  0  0  0  0
   44.7110   35.0180   45.6380 N   0  0  0  0  0  0  0  0  0  0  0  0
   46.4110   32.9370   38.7430 C   0  0  0  0  0  0  0  0  0  0  0  0
   45.5520   33.3280   37.7930 N   0  0  0  0  0  0  0  0  0  0  0  0
   45.2850   32.2410   37.0290 C   0  0  0  0  0  0  0  0  0  0  0  0
   45.9870   31.1780   37.5150 N   0  0  0  0  0  0  0  0  0  0  0  0
   46.6730   31.6290   38.5700 N   0  0  0  0  0  0  0  0  0  0  0  0
   48.4591   36.0011   42.4965 H   0  0  0  0  0  0  0  0  0  0  0  0
   49.6270   35.7476   40.3596 H   0  0  0  0  0  0  0  0  0  0  0  0
   48.6744   34.3077   38.5822 H   0  0  0  0  0  0  0  0  0  0  0  0
   43.7614   36.7686   44.8685 H   0  0  0  0  0  0  0  0  0  0  0  0
   45.0032   36.6075   42.7163 H   0  0  0  0  0  0  0  0  0  0  0  0
   45.7602   33.2849   46.1899 H   0  0  0  0  0  0  0  0  0  0  0  0
   44.6120   32.2198   36.1591 H   0  0  0  0  0  0  0  0  0  0  0  0
   45.9885   30.2176   37.1429 H   0  0  0  0  0  0  0  0  0  0  0  0
  2  1  1  0
  2  3  2  0
  3 10  1  0
  4  3  1  0
  5  4  2  0
  6  7  2  0
  6  5  1  0
  7  2  1  0
  8 13  2  0
  9  8  1  0
 10  9  2  0
 10 11  1  0
 11 12  2  0
 12 13  1  0
 14  7  1  0
 15 14  1  0
 16 17  1  0
 16 15  2  0
 17 18  1  0
 18 14  2  0
  4 19  1  0
  5 20  1  0
  6 21  1  0
  8 22  1  0
  9 23  1  0
 12 24  1  0
 16 25  1  0
 17 26  1  0
M  ISO  8  19  14  20  14  21  14  22  14  23  14  24  14  25  14  26   9
M  END
>  <minimizedAffinity>  (1) 
-5.36300325

>  <minimizedRMSD>  (1) 
0.528092682

$$$$
