
     RDKit          3D

 26 28  0  0  0  0  0  0  0  0999 V2000
   44.9390   33.0850   41.1460 Cl  0  0  0  0  0  0  0  0  0  0  0  0
   46.4390   33.9900   40.9850 C   0  0  0  0  0  0  0  0  0  0  0  0
   46.8980   34.7710   41.9850 C   0  0  0  0  0  0  0  0  0  0  0  0
   48.0830   35.4180   41.7250 C   0  0  0  0  0  0  0  0  0  0  0  0
   48.7640   35.3000   40.5640 C   0  0  0  0  0  0  0  0  0  0  0  0
   48.2800   34.5040   39.5670 C   0  0  0  0  0  0  0  0  0  0  0  0
   47.0850   33.8310   39.7840 C   0  0  0  0  0  0  0  0  0  0  0  0
   44.4830   35.9400   44.6540 C   0  0  0  0  0  0  0  0  0  0  0  0
   45.2080   35.8700   43.4550 C   0  0  0  0  0  0  0  0  0  0  0  0
   46.1370   34.8680   43.2110 C   0  0  0  0  0  0  0  0  0  0  0  0
   46.2920   33.9610   44.2200 N   0  0  0  0  0  0  0  0  0  0  0  0
   45.5920   34.0390   45.3630 C   0  0  0  0  0  0  0  0  0  0  0  0
   44.7030   35.0080   45.5820 N   0  0  0  0  0  0  0  0  0  0  0  0
   46.5480   32.9630   38.7080 C   0  0  0  0  0  0  0  0  0  0  0  0
   46.8580   31.5990   38.6020 C   0  0  0  0  0  0  0  0  0  0  0  0
   45.9460   31.0530   37.1370 S   0  0  0  0  0  0  0  0  0  0  0  0
   45.2590   32.8080   36.8790 C   0  0  0  0  0  0  0  0  0  0  0  0
   45.7480   33.3150   37.7470 N   0  0  0  0  0  0  0  0  0  0  0  0
   48.5006   36.0691   42.5071 H   0  0  0  0  0  0  0  0  0  0  0  0
   49.7086   35.8456   40.4225 H   0  0  0  0  0  0  0  0  0  0  0  0
   48.8225   34.3982   38.6159 H   0  0  0  0  0  0  0  0  0  0  0  0
   43.7514   36.7436   44.8244 H   0  0  0  0  0  0  0  0  0  0  0  0
   45.0346   36.6342   42.6830 H   0  0  0  0  0  0  0  0  0  0  0  0
   45.7570   33.2804   46.1423 H   0  0  0  0  0  0  0  0  0  0  0  0
   47.5061   30.9994   39.2581 H   0  0  0  0  0  0  0  0  0  0  0  0
   44.5832   33.2049   36.1071 H   0  0  0  0  0  0  0  0  0  0  0  0
  2  1  1  0
  2  3  2  0
  3 10  1  0
  4  3  1  0
  5  4  2  0
  6  7  2  0
  6  5  1  0
  7  2  1  0
  8 13  2  0
  9  8  1  0
 10  9  2  0
 10 11  1  0
 11 12  2  0
 12 13  1  0
 14  7  1  0
 15 14  2  0
 16 15  1  0
 17 16  1  0
 17 18  2  0
 18 14  1  0
  4 19  1  0
  5 20  1  0
  6 21  1  0
  8 22  1  0
  9 23  1  0
 12 24  1  0
 15 25  1  0
 17 26  1  0
M  ISO  8  19  14  20  14  21  14  22  14  23  14  24  14  25  14  26  14
M  END
>  <minimizedAffinity>  (1) 
-5.44907713

>  <minimizedRMSD>  (1) 
0.435663849

$$$$
