
     RDKit          3D

 39 43  0  0  0  0  0  0  0  0999 V2000
   47.2440   33.2100   38.7220 C   0  0  0  0  0  0  0  0  0  0  0  0
   47.8320   31.9620   38.5130 C   0  0  0  0  0  0  0  0  0  0  0  0
   47.0500   31.3290   37.0170 S   0  0  0  0  0  0  0  0  0  0  0  0
   45.9850   32.9220   36.8780 C   0  0  0  0  0  0  0  0  0  0  0  0
   46.3710   33.4520   37.7840 N   0  0  0  0  0  0  0  0  0  0  0  0
   45.0260   33.2120   35.8660 N   0  0  0  0  0  0  0  0  0  0  0  0
   48.8540   31.2760   39.3010 N   0  0  0  0  0  0  0  0  0  0  0  0
   48.5480   30.5740   40.3880 C   0  0  0  0  0  0  0  0  0  0  0  0
   49.7310   30.0880   40.8520 N   0  0  0  0  0  0  0  0  0  0  0  0
   50.7020   30.5070   40.0420 C   0  0  0  0  0  0  0  0  0  0  0  0
   52.0870   30.3270   40.0190 C   0  0  0  0  0  0  0  0  0  0  0  0
   52.8640   30.8770   39.0570 N   0  0  0  0  0  0  0  0  0  0  0  0
   52.2920   31.6270   38.0820 C   0  0  0  0  0  0  0  0  0  0  0  0
   50.9440   31.8240   38.0730 N   0  0  0  0  0  0  0  0  0  0  0  0
   50.1720   31.2770   39.0290 C   0  0  0  0  0  0  0  0  0  0  0  0
   45.5270   32.9780   41.0690 Cl  0  0  0  0  0  0  0  0  0  0  0  0
   46.8700   34.0830   41.0240 C   0  0  0  0  0  0  0  0  0  0  0  0
   47.1970   34.8970   42.0690 C   0  0  0  0  0  0  0  0  0  0  0  0
   48.2740   35.7180   41.9030 C   0  0  0  0  0  0  0  0  0  0  0  0
   49.0060   35.7500   40.7720 C   0  0  0  0  0  0  0  0  0  0  0  0
   48.6930   34.9410   39.7160 C   0  0  0  0  0  0  0  0  0  0  0  0
   47.5960   34.0910   39.8560 C   0  0  0  0  0  0  0  0  0  0  0  0
   44.5290   35.6360   44.6690 C   0  0  0  0  0  0  0  0  0  0  0  0
   45.3210   35.7130   43.5120 C   0  0  0  0  0  0  0  0  0  0  0  0
   46.3730   34.8220   43.2630 C   0  0  0  0  0  0  0  0  0  0  0  0
   46.5570   33.8900   44.2240 N   0  0  0  0  0  0  0  0  0  0  0  0
   45.8000   33.8190   45.3250 C   0  0  0  0  0  0  0  0  0  0  0  0
   44.7990   34.6790   45.5460 N   0  0  0  0  0  0  0  0  0  0  0  0
   44.5078   34.1019   35.8874 H   0  0  0  0  0  0  0  0  0  0  0  0
   44.8505   32.5318   35.1127 H   0  0  0  0  0  0  0  0  0  0  0  0
   47.5488   30.4189   40.8209 H   0  0  0  0  0  0  0  0  0  0  0  0
   52.5599   29.7206   40.8056 H   0  0  0  0  0  0  0  0  0  0  0  0
   52.9178   32.0769   37.2972 H   0  0  0  0  0  0  0  0  0  0  0  0
   48.5579   36.3846   42.7306 H   0  0  0  0  0  0  0  0  0  0  0  0
   49.8641   36.4342   40.6980 H   0  0  0  0  0  0  0  0  0  0  0  0
   49.2849   34.9595   38.7890 H   0  0  0  0  0  0  0  0  0  0  0  0
   43.7090   36.3484   44.8426 H   0  0  0  0  0  0  0  0  0  0  0  0
   45.1078   36.5011   42.7748 H   0  0  0  0  0  0  0  0  0  0  0  0
   46.0058   33.0337   46.0673 H   0  0  0  0  0  0  0  0  0  0  0  0
  1 22  1  0
  2  1  2  0
  2  7  1  0
  3  2  1  0
  4  3  1  0
  4  5  2  0
  5  1  1  0
  6  4  1  0
  7  8  1  0
  8  9  2  0
 10  9  1  0
 11 10  2  0
 12 11  1  0
 13 12  2  0
 14 13  1  0
 14 15  2  0
 15  7  1  0
 15 10  1  0
 17 16  1  0
 17 18  2  0
 18 25  1  0
 19 18  1  0
 20 19  2  0
 21 22  2  0
 21 20  1  0
 22 17  1  0
 23 28  2  0
 24 23  1  0
 25 24  2  0
 25 26  1  0
 26 27  2  0
 27 28  1  0
  6 29  1  0
  6 30  1  0
  8 31  1  0
 11 32  1  0
 13 33  1  0
 19 34  1  0
 20 35  1  0
 21 36  1  0
 23 37  1  0
 24 38  1  0
 27 39  1  0
M  ISO  8  31  14  32  14  33  14  34  14  35  14  36  14  37  14  38  14
M  ISO  1  39  14
M  END
>  <minimizedAffinity>  (1) 
-6.49903917

>  <minimizedRMSD>  (1) 
2.31393719

$$$$
