
     RDKit          3D

 29 30  0  0  0  0  0  0  0  0999 V2000
   44.5720   35.6850   44.8110 C   0  0  0  0  0  0  0  0  0  0  0  0
   45.2250   35.6710   43.5460 C   0  0  0  0  0  0  0  0  0  0  0  0
   46.1720   34.6660   43.3440 C   0  0  0  0  0  0  0  0  0  0  0  0
   46.4180   33.7730   44.3420 N   0  0  0  0  0  0  0  0  0  0  0  0
   45.7680   33.8340   45.5270 C   0  0  0  0  0  0  0  0  0  0  0  0
   44.8550   34.7770   45.7610 N   0  0  0  0  0  0  0  0  0  0  0  0
   46.0790   32.8320   46.5780 C   0  0  0  0  0  0  0  0  0  0  0  0
   46.0720   31.4480   46.0060 C   0  0  0  0  0  0  0  0  0  0  0  0
   46.0520   30.3490   46.9760 C   0  0  0  0  0  0  0  0  0  0  0  0
   45.4690   30.6240   48.3200 C   0  0  0  0  0  0  0  0  0  0  0  0
   45.7090   32.0290   48.8110 C   0  0  0  0  0  0  0  0  0  0  0  0
   45.1240   32.9430   47.7540 C   0  0  0  0  0  0  0  0  0  0  0  0
   46.8210   34.6850   42.0310 C   0  0  0  0  0  0  0  0  0  0  0  0
   47.6140   33.5470   41.9000 F   0  0  0  0  0  0  0  0  0  0  0  0
   47.6930   35.7550   42.0200 F   0  0  0  0  0  0  0  0  0  0  0  0
   45.9480   34.7040   40.9910 F   0  0  0  0  0  0  0  0  0  0  0  0
   43.8170   36.4582   45.0162 H   0  0  0  0  0  0  0  0  0  0  0  0
   44.9950   36.4139   42.7681 H   0  0  0  0  0  0  0  0  0  0  0  0
   47.0900   33.0435   46.9564 H   0  0  0  0  0  0  0  0  0  0  0  0
   45.1793   31.3516   45.3705 H   0  0  0  0  0  0  0  0  0  0  0  0
   47.0245   31.3472   45.4651 H   0  0  0  0  0  0  0  0  0  0  0  0
   45.4745   29.5263   46.5291 H   0  0  0  0  0  0  0  0  0  0  0  0
   47.1122   30.1302   47.1714 H   0  0  0  0  0  0  0  0  0  0  0  0
   44.3832   30.4554   48.2682 H   0  0  0  0  0  0  0  0  0  0  0  0
   45.9666   29.9470   49.0299 H   0  0  0  0  0  0  0  0  0  0  0  0
   45.2056   32.1884   49.7760 H   0  0  0  0  0  0  0  0  0  0  0  0
   46.7801   32.2252   48.9671 H   0  0  0  0  0  0  0  0  0  0  0  0
   45.0776   33.9794   48.1197 H   0  0  0  0  0  0  0  0  0  0  0  0
   44.0955   32.6620   47.4833 H   0  0  0  0  0  0  0  0  0  0  0  0
  1  6  2  0
  2  1  1  0
  3  2  2  0
  3  4  1  0
  4  5  2  0
  5  6  1  0
  5  7  1  0
  7 12  1  0
  8  7  1  0
  8  9  1  0
  9 10  1  0
 10 11  1  0
 12 11  1  0
 13  3  1  0
 14 13  1  0
 15 13  1  0
 16 13  1  0
  1 17  1  0
  2 18  1  0
  7 19  1  0
  8 20  1  0
  8 21  1  0
  9 22  1  0
  9 23  1  0
 10 24  1  0
 10 25  1  0
 11 26  1  0
 11 27  1  0
 12 28  1  0
 12 29  1  0
M  ISO  8  17  14  18  14  19  13  20  13  21  13  22  13  23  13  24  13
M  ISO  5  25  13  26  13  27  13  28  13  29  13
M  END
>  <minimizedAffinity>  (1) 
-5.46712255

>  <minimizedRMSD>  (1) 
0.896864891

$$$$
