
     RDKit          3D

 26 28  0  0  0  0  0  0  0  0999 V2000
   47.9880   34.8510   41.6350 C   0  0  0  0  0  0  0  0  0  0  0  0
   48.9840   35.9560   41.6470 C   0  0  0  0  0  0  0  0  0  0  0  0
   49.4070   34.5780   41.9800 C   0  0  0  0  0  0  0  0  0  0  0  0
   45.8880   35.6990   42.7320 C   0  0  0  0  0  0  0  0  0  0  0  0
   46.9610   34.8080   42.7120 C   0  0  0  0  0  0  0  0  0  0  0  0
   47.0460   33.8510   43.7530 C   0  0  0  0  0  0  0  0  0  0  0  0
   46.0760   33.8500   44.7200 N   0  0  0  0  0  0  0  0  0  0  0  0
   45.0590   34.7380   44.6900 C   0  0  0  0  0  0  0  0  0  0  0  0
   44.9540   35.6670   43.7010 N   0  0  0  0  0  0  0  0  0  0  0  0
   47.5170   34.2930   40.3440 C   0  0  0  0  0  0  0  0  0  0  0  0
   46.3230   33.5910   40.2360 C   0  0  0  0  0  0  0  0  0  0  0  0
   46.0030   33.1200   38.9560 C   0  0  0  0  0  0  0  0  0  0  0  0
   46.8450   33.3540   37.8820 C   0  0  0  0  0  0  0  0  0  0  0  0
   48.0180   34.0540   38.0350 C   0  0  0  0  0  0  0  0  0  0  0  0
   48.3060   34.4970   39.2710 N   0  0  0  0  0  0  0  0  0  0  0  0
   49.3057   36.4164   40.7012 H   0  0  0  0  0  0  0  0  0  0  0  0
   49.0549   36.9331   42.1472 H   0  0  0  0  0  0  0  0  0  0  0  0
   49.6816   34.3224   43.0141 H   0  0  0  0  0  0  0  0  0  0  0  0
   50.1791   33.8905   41.6041 H   0  0  0  0  0  0  0  0  0  0  0  0
   45.8025   36.4498   41.9326 H   0  0  0  0  0  0  0  0  0  0  0  0
   47.8721   33.1253   43.7840 H   0  0  0  0  0  0  0  0  0  0  0  0
   44.2977   34.7098   45.4835 H   0  0  0  0  0  0  0  0  0  0  0  0
   45.6687   33.4157   41.1027 H   0  0  0  0  0  0  0  0  0  0  0  0
   45.0706   32.5569   38.8022 H   0  0  0  0  0  0  0  0  0  0  0  0
   46.5700   32.9725   36.8876 H   0  0  0  0  0  0  0  0  0  0  0  0
   48.6902   34.2430   37.1850 H   0  0  0  0  0  0  0  0  0  0  0  0
  1  2  1  0
  1  3  1  0
  1  5  1  0
  2  3  1  0
  4  9  2  0
  5  4  1  0
  5  6  2  0
  6  7  1  0
  8  7  2  0
  9  8  1  0
 10  1  1  0
 11 10  2  0
 12 11  1  0
 13 14  1  0
 13 12  2  0
 14 15  2  0
 15 10  1  0
  2 16  1  0
  2 17  1  0
  3 18  1  0
  3 19  1  0
  4 20  1  0
  6 21  1  0
  8 22  1  0
 11 23  1  0
 12 24  1  0
 13 25  1  0
 14 26  1  0
M  ISO  8  16  13  17  13  18  13  19  13  20  14  21  14  22  14  23  14
M  ISO  3  24  14  25  14  26  14
M  END
>  <minimizedAffinity>  (1) 
-4.96601248

>  <minimizedRMSD>  (1) 
1.73835516

$$$$
