
     RDKit          3D

 19 19  0  0  0  0  0  0  0  0999 V2000
   44.6800   35.6020   44.3520 C   0  0  0  0  0  0  0  0  0  0  0  0
   45.4350   35.6130   43.1630 C   0  0  0  0  0  0  0  0  0  0  0  0
   46.4970   34.7040   43.0700 C   0  0  0  0  0  0  0  0  0  0  0  0
   46.7330   33.8710   44.1270 N   0  0  0  0  0  0  0  0  0  0  0  0
   45.9750   33.9000   45.2520 C   0  0  0  0  0  0  0  0  0  0  0  0
   44.9470   34.7700   45.3550 N   0  0  0  0  0  0  0  0  0  0  0  0
   47.2540   34.7450   41.8230 C   0  0  0  0  0  0  0  0  0  0  0  0
   48.1410   33.6660   41.7990 F   0  0  0  0  0  0  0  0  0  0  0  0
   48.0350   35.8750   41.8570 F   0  0  0  0  0  0  0  0  0  0  0  0
   46.4630   34.6510   40.7080 F   0  0  0  0  0  0  0  0  0  0  0  0
   46.4440   32.9470   46.1490 O   0  0  0  0  0  0  0  0  0  0  0  0
   46.4990   32.4050   48.7520 O   0  0  0  0  0  0  0  0  0  0  0  0
   45.5810   32.6360   47.5810 P   0  0  0  0  0  0  0  0  0  0  0  0
   44.5360   33.9510   47.8800 O   0  0  0  0  0  0  0  0  0  0  0  0
   44.6410   31.2420   47.3940 O   0  0  0  0  0  0  0  0  0  0  0  0
   43.8407   36.3056   44.4547 H   0  0  0  0  0  0  0  0  0  0  0  0
   45.2006   36.3063   42.3418 H   0  0  0  0  0  0  0  0  0  0  0  0
   44.4356   34.0773   48.8568 H   0  0  0  0  0  0  0  0  0  0  0  0
   44.4000   30.8845   48.2852 H   0  0  0  0  0  0  0  0  0  0  0  0
  1  6  2  0
  2  1  1  0
  3  2  2  0
  3  4  1  0
  4  5  2  0
  5  6  1  0
  5 11  1  0
  7  9  1  0
  7  3  1  0
  8  7  1  0
 10  7  1  0
 11 13  1  0
 13 14  1  0
 13 12  2  0
 15 13  1  0
  1 16  1  0
  2 17  1  0
 14 18  1  0
 15 19  1  0
M  ISO  4  16  14  17  14  18   3  19   3
M  END
>  <minimizedAffinity>  (1) 
-5.41882753

>  <minimizedRMSD>  (1) 
0.721428096

$$$$
