
     RDKit          3D

 32 34  0  0  0  0  0  0  0  0999 V2000
   48.3450   34.6110   41.9110 C   0  0  0  0  0  0  0  0  0  0  0  0
   48.9770   35.8900   41.5390 C   0  0  0  0  0  0  0  0  0  0  0  0
   49.6970   34.9890   42.4550 C   0  0  0  0  0  0  0  0  0  0  0  0
   46.1660   35.5570   42.7580 C   0  0  0  0  0  0  0  0  0  0  0  0
   47.2140   34.6080   42.8650 C   0  0  0  0  0  0  0  0  0  0  0  0
   47.1030   33.6990   43.9130 C   0  0  0  0  0  0  0  0  0  0  0  0
   46.0190   33.7710   44.7580 N   0  0  0  0  0  0  0  0  0  0  0  0
   45.0560   34.6860   44.6130 C   0  0  0  0  0  0  0  0  0  0  0  0
   45.1200   35.5980   43.6010 N   0  0  0  0  0  0  0  0  0  0  0  0
   48.2270   33.6430   40.8680 N   0  0  0  0  0  0  0  0  0  0  0  0
   49.2340   32.6690   40.7420 C   0  0  0  0  0  0  0  0  0  0  0  0
   48.7060   31.6020   39.7650 C   0  0  0  0  0  0  0  0  0  0  0  0
   48.5560   32.1410   38.3790 C   0  0  0  0  0  0  0  0  0  0  0  0
   48.3770   33.6390   38.4100 C   0  0  0  0  0  0  0  0  0  0  0  0
   47.6050   34.0710   39.6670 C   0  0  0  0  0  0  0  0  0  0  0  0
   49.3486   36.0377   40.5143 H   0  0  0  0  0  0  0  0  0  0  0  0
   48.6651   36.9439   41.5839 H   0  0  0  0  0  0  0  0  0  0  0  0
   49.8099   35.2559   43.5161 H   0  0  0  0  0  0  0  0  0  0  0  0
   50.6925   34.5213   42.4694 H   0  0  0  0  0  0  0  0  0  0  0  0
   46.2113   36.2963   41.9448 H   0  0  0  0  0  0  0  0  0  0  0  0
   47.8747   32.9299   44.0646 H   0  0  0  0  0  0  0  0  0  0  0  0
   44.2077   34.7037   45.3131 H   0  0  0  0  0  0  0  0  0  0  0  0
   50.1528   33.1244   40.3441 H   0  0  0  0  0  0  0  0  0  0  0  0
   49.4747   32.2235   41.7185 H   0  0  0  0  0  0  0  0  0  0  0  0
   49.4118   30.7585   39.7441 H   0  0  0  0  0  0  0  0  0  0  0  0
   47.7140   31.2804   40.1149 H   0  0  0  0  0  0  0  0  0  0  0  0
   47.6762   31.6812   37.9052 H   0  0  0  0  0  0  0  0  0  0  0  0
   49.4639   31.9034   37.8051 H   0  0  0  0  0  0  0  0  0  0  0  0
   49.3661   34.1204   38.4111 H   0  0  0  0  0  0  0  0  0  0  0  0
   47.8036   33.9438   37.5221 H   0  0  0  0  0  0  0  0  0  0  0  0
   47.5374   35.1689   39.6780 H   0  0  0  0  0  0  0  0  0  0  0  0
   46.6112   33.6016   39.6231 H   0  0  0  0  0  0  0  0  0  0  0  0
  1  3  1  0
  1  5  1  0
  2  1  1  0
  2  3  1  0
  4  5  2  0
  4  9  1  0
  5  6  1  0
  6  7  2  0
  8  7  1  0
  9  8  2  0
 10  1  1  0
 11 10  1  0
 12 11  1  0
 13 14  1  0
 13 12  1  0
 14 15  1  0
 15 10  1  0
  2 16  1  0
  2 17  1  0
  3 18  1  0
  3 19  1  0
  4 20  1  0
  6 21  1  0
  8 22  1  0
 11 23  1  0
 11 24  1  0
 12 25  1  0
 12 26  1  0
 13 27  1  0
 13 28  1  0
 14 29  1  0
 14 30  1  0
 15 31  1  0
 15 32  1  0
M  ISO  8  16  13  17  13  18  13  19  13  20  14  21  14  22  14  23  13
M  ISO  8  24  13  25  13  26  13  27  13  28  13  29  13  30  13  31  13
M  ISO  1  32  13
M  END
>  <minimizedAffinity>  (1) 
-4.5809269

>  <minimizedRMSD>  (1) 
0.68627888

$$$$
