
     RDKit          3D

 23 24  0  0  0  0  0  0  0  0999 V2000
   48.6500   34.4570   41.9770 C   0  0  0  0  0  0  0  0  0  0  0  0
   49.0240   35.8080   41.4520 C   0  0  0  0  0  0  0  0  0  0  0  0
   49.8450   35.1740   42.5090 C   0  0  0  0  0  0  0  0  0  0  0  0
   46.3690   35.3030   42.7180 C   0  0  0  0  0  0  0  0  0  0  0  0
   47.4450   34.3840   42.8480 C   0  0  0  0  0  0  0  0  0  0  0  0
   47.2950   33.4250   43.8480 C   0  0  0  0  0  0  0  0  0  0  0  0
   46.1720   33.4110   44.6220 N   0  0  0  0  0  0  0  0  0  0  0  0
   45.1860   34.3020   44.4570 C   0  0  0  0  0  0  0  0  0  0  0  0
   45.2950   35.2420   43.5050 N   0  0  0  0  0  0  0  0  0  0  0  0
   48.7310   33.4710   41.0440 O   0  0  0  0  0  0  0  0  0  0  0  0
   46.4410   33.8070   39.6960 O   0  0  0  0  0  0  0  0  0  0  0  0
   47.9250   33.5790   39.6320 P   0  0  0  0  0  0  0  0  0  0  0  0
   48.5750   34.7120   38.5470 O   0  0  0  0  0  0  0  0  0  0  0  0
   48.0780   32.0700   38.8230 O   0  0  0  0  0  0  0  0  0  0  0  0
   49.4240   35.9101   40.4324 H   0  0  0  0  0  0  0  0  0  0  0  0
   48.5040   36.7714   41.3450 H   0  0  0  0  0  0  0  0  0  0  0  0
   49.8315   35.5794   43.5315 H   0  0  0  0  0  0  0  0  0  0  0  0
   50.9114   34.9276   42.6188 H   0  0  0  0  0  0  0  0  0  0  0  0
   46.4239   36.0858   41.9471 H   0  0  0  0  0  0  0  0  0  0  0  0
   48.0845   32.6772   44.0136 H   0  0  0  0  0  0  0  0  0  0  0  0
   44.2925   34.2638   45.0975 H   0  0  0  0  0  0  0  0  0  0  0  0
   48.9981   35.4495   39.0541 H   0  0  0  0  0  0  0  0  0  0  0  0
   48.1517   31.3433   39.4913 H   0  0  0  0  0  0  0  0  0  0  0  0
  1  3  1  0
  1  5  1  0
  2  1  1  0
  2  3  1  0
  4  5  2  0
  4  9  1  0
  5  6  1  0
  6  7  2  0
  8  7  1  0
  9  8  2  0
 10  1  1  0
 12 11  2  0
 12 10  1  0
 13 12  1  0
 14 12  1  0
  2 15  1  0
  2 16  1  0
  3 17  1  0
  3 18  1  0
  4 19  1  0
  6 20  1  0
  8 21  1  0
 13 22  1  0
 14 23  1  0
M  ISO  8  15  13  16  13  17  13  18  13  19  14  20  14  21  14  22   3
M  ISO  1  23   3
M  END
>  <minimizedAffinity>  (1) 
-4.33545065

>  <minimizedRMSD>  (1) 
0.863322139

$$$$
