
     RDKit          3D

 24 26  0  0  0  0  0  0  0  0999 V2000
   48.2070   34.8200   41.6740 C   0  0  0  0  0  0  0  0  0  0  0  0
   49.1170   36.0110   41.7430 C   0  0  0  0  0  0  0  0  0  0  0  0
   49.6180   34.6870   42.1230 C   0  0  0  0  0  0  0  0  0  0  0  0
   46.0250   35.5910   42.6610 C   0  0  0  0  0  0  0  0  0  0  0  0
   47.1330   34.7070   42.7300 C   0  0  0  0  0  0  0  0  0  0  0  0
   47.1890   33.7590   43.7860 C   0  0  0  0  0  0  0  0  0  0  0  0
   46.1590   33.7590   44.6820 N   0  0  0  0  0  0  0  0  0  0  0  0
   45.1370   34.6130   44.5740 C   0  0  0  0  0  0  0  0  0  0  0  0
   45.0620   35.5170   43.5840 N   0  0  0  0  0  0  0  0  0  0  0  0
   47.7900   34.5210   40.2500 C   0  0  0  0  0  0  0  0  0  0  0  0
   46.8180   33.3940   40.0150 C   0  0  0  0  0  0  0  0  0  0  0  0
   48.2840   33.3590   39.5100 C   0  0  0  0  0  0  0  0  0  0  0  0
   49.4702   36.4872   40.8165 H   0  0  0  0  0  0  0  0  0  0  0  0
   49.0731   36.9950   42.2326 H   0  0  0  0  0  0  0  0  0  0  0  0
   49.8378   34.4675   43.1782 H   0  0  0  0  0  0  0  0  0  0  0  0
   50.4713   34.0666   41.8117 H   0  0  0  0  0  0  0  0  0  0  0  0
   45.9594   36.3332   41.8518 H   0  0  0  0  0  0  0  0  0  0  0  0
   48.0280   33.0536   43.8782 H   0  0  0  0  0  0  0  0  0  0  0  0
   44.3304   34.5742   45.3209 H   0  0  0  0  0  0  0  0  0  0  0  0
   47.8157   35.5977   40.0264 H   0  0  0  0  0  0  0  0  0  0  0  0
   46.4994   32.7496   40.8476 H   0  0  0  0  0  0  0  0  0  0  0  0
   45.8202   33.2869   39.5645 H   0  0  0  0  0  0  0  0  0  0  0  0
   49.0107   32.6777   39.9766 H   0  0  0  0  0  0  0  0  0  0  0  0
   48.7677   33.2057   38.5340 H   0  0  0  0  0  0  0  0  0  0  0  0
  1  2  1  0
  1  3  1  0
  1  5  1  0
  2  3  1  0
  4  5  2  0
  4  9  1  0
  5  6  1  0
  6  7  2  0
  8  7  1  0
  9  8  2  0
 10  1  1  0
 11 10  1  0
 12 11  1  0
 12 10  1  0
  2 13  1  0
  2 14  1  0
  3 15  1  0
  3 16  1  0
  4 17  1  0
  6 18  1  0
  8 19  1  0
 10 20  1  0
 11 21  1  0
 11 22  1  0
 12 23  1  0
 12 24  1  0
M  ISO  8  13  13  14  13  15  13  16  13  17  14  18  14  19  14  20  13
M  ISO  4  21  13  22  13  23  13  24  13
M  END
>  <minimizedAffinity>  (1) 
-4.31166935

>  <minimizedRMSD>  (1) 
0.907405138

$$$$
