
     RDKit          3D

 20 21  0  0  0  0  0  0  0  0999 V2000
   44.5310   35.9550   44.2910 C   0  0  0  0  0  0  0  0  0  0  0  0
   45.3270   35.8240   43.1340 C   0  0  0  0  0  0  0  0  0  0  0  0
   46.3010   34.8170   43.1440 C   0  0  0  0  0  0  0  0  0  0  0  0
   46.4210   34.0400   44.2450 N   0  0  0  0  0  0  0  0  0  0  0  0
   45.6320   34.1980   45.3430 C   0  0  0  0  0  0  0  0  0  0  0  0
   44.6980   35.1520   45.3540 N   0  0  0  0  0  0  0  0  0  0  0  0
   45.8680   33.2860   46.4720 C   0  0  0  0  0  0  0  0  0  0  0  0
   46.8490   32.3640   46.7790 C   0  0  0  0  0  0  0  0  0  0  0  0
   46.4920   31.8290   47.9990 C   0  0  0  0  0  0  0  0  0  0  0  0
   45.3460   32.3930   48.4240 N   0  0  0  0  0  0  0  0  0  0  0  0
   44.9770   33.2670   47.5020 N   0  0  0  0  0  0  0  0  0  0  0  0
   47.1170   34.7010   41.9260 C   0  0  0  0  0  0  0  0  0  0  0  0
   47.9720   33.6220   42.0460 F   0  0  0  0  0  0  0  0  0  0  0  0
   47.9450   35.8230   41.9180 F   0  0  0  0  0  0  0  0  0  0  0  0
   46.3870   34.5680   40.7870 F   0  0  0  0  0  0  0  0  0  0  0  0
   43.7548   36.7337   44.3232 H   0  0  0  0  0  0  0  0  0  0  0  0
   45.1893   36.4824   42.2636 H   0  0  0  0  0  0  0  0  0  0  0  0
   47.7325   32.1090   46.1754 H   0  0  0  0  0  0  0  0  0  0  0  0
   47.0580   31.0581   48.5425 H   0  0  0  0  0  0  0  0  0  0  0  0
   44.8498   32.1835   49.3019 H   0  0  0  0  0  0  0  0  0  0  0  0
  1  6  2  0
  2  3  2  0
  2  1  1  0
  3  4  1  0
  4  5  2  0
  5  6  1  0
  5  7  1  0
  7  8  1  0
  7 11  2  0
  8  9  2  0
  9 10  1  0
 11 10  1  0
 12 13  1  0
 12  3  1  0
 14 12  1  0
 15 12  1  0
  1 16  1  0
  2 17  1  0
  8 18  1  0
  9 19  1  0
 10 20  1  0
M  ISO  5  16  14  17  14  18  14  19  14  20   9
M  END
>  <minimizedAffinity>  (1) 
-5.21335125

>  <minimizedRMSD>  (1) 
0.25865522

$$$$
