
     RDKit          3D

 34 36  0  0  0  0  0  0  0  0999 V2000
   48.0950   34.5470   41.6080 C   0  0  0  0  0  0  0  0  0  0  0  0
   48.8920   35.7680   41.2480 C   0  0  0  0  0  0  0  0  0  0  0  0
   49.5330   34.5970   41.8780 C   0  0  0  0  0  0  0  0  0  0  0  0
   47.6450   33.7250   40.4300 C   0  0  0  0  0  0  0  0  0  0  0  0
   48.0740   34.2440   39.0930 C   0  0  0  0  0  0  0  0  0  0  0  0
   47.6210   33.2090   38.0660 C   0  0  0  0  0  0  0  0  0  0  0  0
   46.2380   33.3500   37.9450 O   0  0  0  0  0  0  0  0  0  0  0  0
   45.7410   32.8060   39.1490 C   0  0  0  0  0  0  0  0  0  0  0  0
   46.1170   33.7180   40.3070 C   0  0  0  0  0  0  0  0  0  0  0  0
   46.1750   35.6570   42.7480 C   0  0  0  0  0  0  0  0  0  0  0  0
   47.1330   34.6520   42.7550 C   0  0  0  0  0  0  0  0  0  0  0  0
   47.1700   33.7450   43.8660 C   0  0  0  0  0  0  0  0  0  0  0  0
   46.2450   33.9400   44.8480 N   0  0  0  0  0  0  0  0  0  0  0  0
   45.3460   34.9260   44.7870 C   0  0  0  0  0  0  0  0  0  0  0  0
   45.2950   35.7840   43.7590 N   0  0  0  0  0  0  0  0  0  0  0  0
   44.3810   35.0510   45.9140 C   0  0  0  0  0  0  0  0  0  0  0  0
   49.0917   36.0069   40.1930 H   0  0  0  0  0  0  0  0  0  0  0  0
   48.8262   36.8424   41.4743 H   0  0  0  0  0  0  0  0  0  0  0  0
   49.8917   34.6634   42.9158 H   0  0  0  0  0  0  0  0  0  0  0  0
   50.3874   33.9549   41.6177 H   0  0  0  0  0  0  0  0  0  0  0  0
   48.0986   32.7452   40.6405 H   0  0  0  0  0  0  0  0  0  0  0  0
   47.5981   35.2149   38.8907 H   0  0  0  0  0  0  0  0  0  0  0  0
   49.1627   34.3961   39.0538 H   0  0  0  0  0  0  0  0  0  0  0  0
   48.1082   33.3960   37.0977 H   0  0  0  0  0  0  0  0  0  0  0  0
   47.8909   32.1905   38.3819 H   0  0  0  0  0  0  0  0  0  0  0  0
   44.6459   32.7210   39.0891 H   0  0  0  0  0  0  0  0  0  0  0  0
   46.1764   31.8087   39.3096 H   0  0  0  0  0  0  0  0  0  0  0  0
   45.7539   34.7378   40.1117 H   0  0  0  0  0  0  0  0  0  0  0  0
   45.6609   33.3568   41.2406 H   0  0  0  0  0  0  0  0  0  0  0  0
   46.1344   36.3604   41.9033 H   0  0  0  0  0  0  0  0  0  0  0  0
   47.9087   32.9319   43.9226 H   0  0  0  0  0  0  0  0  0  0  0  0
   44.9218   34.9809   46.8693 H   0  0  0  0  0  0  0  0  0  0  0  0
   43.8695   36.0229   45.8527 H   0  0  0  0  0  0  0  0  0  0  0  0
   43.6387   34.2415   45.8527 H   0  0  0  0  0  0  0  0  0  0  0  0
  1  3  1  0
  1 11  1  0
  2  1  1  0
  2  3  1  0
  4  1  1  0
  5  4  1  0
  6  5  1  0
  7  6  1  0
  7  8  1  0
  8  9  1  0
  9  4  1  0
 10 11  2  0
 10 15  1  0
 11 12  1  0
 12 13  2  0
 14 13  1  0
 14 16  1  0
 15 14  2  0
  2 17  1  0
  2 18  1  0
  3 19  1  0
  3 20  1  0
  4 21  1  0
  5 22  1  0
  5 23  1  0
  6 24  1  0
  6 25  1  0
  8 26  1  0
  8 27  1  0
  9 28  1  0
  9 29  1  0
 10 30  1  0
 12 31  1  0
 16 32  1  0
 16 33  1  0
 16 34  1  0
M  ISO  8  17  13  18  13  19  13  20  13  21  13  22  13  23  13  24  13
M  ISO  8  25  13  26  13  27  13  28  13  29  13  30  14  31  14  32   8
M  ISO  2  33   8  34   8
M  END
>  <minimizedAffinity>  (1) 
-4.65121508

>  <minimizedRMSD>  (1) 
0.432954013

$$$$
