
     RDKit          3D

 20 21  0  0  0  0  0  0  0  0999 V2000
   44.5210   35.8970   44.7090 C   0  0  0  0  0  0  0  0  0  0  0  0
   45.1970   35.8130   43.4700 C   0  0  0  0  0  0  0  0  0  0  0  0
   46.0910   34.7560   43.3000 C   0  0  0  0  0  0  0  0  0  0  0  0
   46.2470   33.8860   44.3290 N   0  0  0  0  0  0  0  0  0  0  0  0
   45.5820   33.9990   45.5000 C   0  0  0  0  0  0  0  0  0  0  0  0
   44.7230   35.0010   45.6870 N   0  0  0  0  0  0  0  0  0  0  0  0
   45.8980   32.9400   46.4970 C   0  0  0  0  0  0  0  0  0  0  0  0
   45.1860   32.9090   47.7440 C   0  0  0  0  0  0  0  0  0  0  0  0
   45.5300   31.9070   48.6130 C   0  0  0  0  0  0  0  0  0  0  0  0
   46.5300   30.9530   48.3060 C   0  0  0  0  0  0  0  0  0  0  0  0
   47.0270   31.5700   46.5760 S   0  0  0  0  0  0  0  0  0  0  0  0
   46.7720   34.7030   42.0050 C   0  0  0  0  0  0  0  0  0  0  0  0
   47.5350   33.5370   41.9510 F   0  0  0  0  0  0  0  0  0  0  0  0
   47.6860   35.7450   41.9990 F   0  0  0  0  0  0  0  0  0  0  0  0
   45.9280   34.7090   40.9410 F   0  0  0  0  0  0  0  0  0  0  0  0
   43.8099   36.7196   44.8757 H   0  0  0  0  0  0  0  0  0  0  0  0
   45.0249   36.5511   42.6727 H   0  0  0  0  0  0  0  0  0  0  0  0
   44.4084   33.6479   47.9877 H   0  0  0  0  0  0  0  0  0  0  0  0
   45.0120   31.8417   49.5812 H   0  0  0  0  0  0  0  0  0  0  0  0
   46.9085   30.1043   48.8947 H   0  0  0  0  0  0  0  0  0  0  0  0
  1  6  2  0
  2  1  1  0
  3  2  2  0
  3  4  1  0
  4  5  2  0
  5  6  1  0
  5  7  1  0
  7 11  1  0
  7  8  2  0
  8  9  1  0
 10  9  2  0
 11 10  1  0
 12  3  1  0
 13 12  1  0
 14 12  1  0
 15 12  1  0
  1 16  1  0
  2 17  1  0
  8 18  1  0
  9 19  1  0
 10 20  1  0
M  ISO  5  16  14  17  14  18  14  19  14  20  14
M  END
>  <minimizedAffinity>  (1) 
-5.1455431

>  <minimizedRMSD>  (1) 
0.460704446

$$$$
