
     RDKit          3D

 33 35  0  0  0  0  0  0  0  0999 V2000
   48.0690   34.5890   41.7130 C   0  0  0  0  0  0  0  0  0  0  0  0
   48.9100   35.8130   41.4290 C   0  0  0  0  0  0  0  0  0  0  0  0
   49.4940   34.6480   42.0800 C   0  0  0  0  0  0  0  0  0  0  0  0
   47.6890   33.7870   40.5130 C   0  0  0  0  0  0  0  0  0  0  0  0
   48.1530   34.3820   39.1960 C   0  0  0  0  0  0  0  0  0  0  0  0
   47.7710   33.3380   38.1400 C   0  0  0  0  0  0  0  0  0  0  0  0
   46.3930   33.4410   37.9680 O   0  0  0  0  0  0  0  0  0  0  0  0
   45.8730   32.8350   39.1480 C   0  0  0  0  0  0  0  0  0  0  0  0
   46.1650   33.7420   40.3440 C   0  0  0  0  0  0  0  0  0  0  0  0
   46.1160   35.7230   42.7580 C   0  0  0  0  0  0  0  0  0  0  0  0
   47.0560   34.6920   42.8130 C   0  0  0  0  0  0  0  0  0  0  0  0
   46.9950   33.7980   43.9130 C   0  0  0  0  0  0  0  0  0  0  0  0
   46.0390   33.9810   44.8500 N   0  0  0  0  0  0  0  0  0  0  0  0
   45.1580   34.9950   44.7430 C   0  0  0  0  0  0  0  0  0  0  0  0
   45.1800   35.8570   43.7270 N   0  0  0  0  0  0  0  0  0  0  0  0
   44.1390   35.2210   45.7080 N   0  0  0  0  0  0  0  0  0  0  0  0
   49.1874   36.0636   40.3945 H   0  0  0  0  0  0  0  0  0  0  0  0
   48.8348   36.8845   41.6662 H   0  0  0  0  0  0  0  0  0  0  0  0
   49.7807   34.7041   43.1405 H   0  0  0  0  0  0  0  0  0  0  0  0
   50.3653   34.0104   41.8692 H   0  0  0  0  0  0  0  0  0  0  0  0
   48.1590   32.8105   40.7016 H   0  0  0  0  0  0  0  0  0  0  0  0
   47.6422   35.3363   39.0003 H   0  0  0  0  0  0  0  0  0  0  0  0
   49.2313   34.5992   39.1949 H   0  0  0  0  0  0  0  0  0  0  0  0
   48.2896   33.5472   37.1928 H   0  0  0  0  0  0  0  0  0  0  0  0
   48.0593   32.3250   38.4572 H   0  0  0  0  0  0  0  0  0  0  0  0
   44.7863   32.6994   39.0447 H   0  0  0  0  0  0  0  0  0  0  0  0
   46.3464   31.8540   39.3014 H   0  0  0  0  0  0  0  0  0  0  0  0
   45.7761   34.7534   40.1546 H   0  0  0  0  0  0  0  0  0  0  0  0
   45.6808   33.3585   41.2542 H   0  0  0  0  0  0  0  0  0  0  0  0
   46.1361   36.4337   41.9187 H   0  0  0  0  0  0  0  0  0  0  0  0
   47.7138   32.9700   44.0015 H   0  0  0  0  0  0  0  0  0  0  0  0
   43.4841   36.0074   45.5910 H   0  0  0  0  0  0  0  0  0  0  0  0
   44.0555   34.5984   46.5243 H   0  0  0  0  0  0  0  0  0  0  0  0
  1  3  1  0
  1 11  1  0
  2  1  1  0
  2  3  1  0
  4  1  1  0
  5  4  1  0
  6  5  1  0
  7  6  1  0
  7  8  1  0
  8  9  1  0
  9  4  1  0
 10 11  2  0
 10 15  1  0
 11 12  1  0
 12 13  2  0
 14 13  1  0
 14 16  1  0
 15 14  2  0
  2 17  1  0
  2 18  1  0
  3 19  1  0
  3 20  1  0
  4 21  1  0
  5 22  1  0
  5 23  1  0
  6 24  1  0
  6 25  1  0
  8 26  1  0
  8 27  1  0
  9 28  1  0
  9 29  1  0
 10 30  1  0
 12 31  1  0
 16 32  1  0
 16 33  1  0
M  ISO  8  17  13  18  13  19  13  20  13  21  13  22  13  23  13  24  13
M  ISO  7  25  13  26  13  27  13  28  13  29  13  30  14  31  14
M  END
>  <minimizedAffinity>  (1) 
-5.44691944

>  <minimizedRMSD>  (1) 
0.313669503

$$$$
