
     RDKit          3D

 37 39  0  0  0  0  0  0  0  0999 V2000
   48.0600   34.5830   41.7300 C   0  0  0  0  0  0  0  0  0  0  0  0
   48.8770   35.8290   41.4140 C   0  0  0  0  0  0  0  0  0  0  0  0
   49.4730   34.6700   42.0890 C   0  0  0  0  0  0  0  0  0  0  0  0
   47.6670   33.7980   40.5190 C   0  0  0  0  0  0  0  0  0  0  0  0
   48.1440   34.3720   39.2060 C   0  0  0  0  0  0  0  0  0  0  0  0
   47.7440   33.3430   38.1430 C   0  0  0  0  0  0  0  0  0  0  0  0
   46.3760   33.4580   37.9680 O   0  0  0  0  0  0  0  0  0  0  0  0
   45.8320   32.8810   39.1450 C   0  0  0  0  0  0  0  0  0  0  0  0
   46.1450   33.7750   40.3380 C   0  0  0  0  0  0  0  0  0  0  0  0
   46.0970   35.7540   42.7510 C   0  0  0  0  0  0  0  0  0  0  0  0
   47.0290   34.7270   42.8060 C   0  0  0  0  0  0  0  0  0  0  0  0
   46.9470   33.8460   43.9090 C   0  0  0  0  0  0  0  0  0  0  0  0
   45.9930   34.0280   44.8440 N   0  0  0  0  0  0  0  0  0  0  0  0
   45.1200   35.0340   44.7390 C   0  0  0  0  0  0  0  0  0  0  0  0
   45.1650   35.8770   43.7250 N   0  0  0  0  0  0  0  0  0  0  0  0
   44.0940   35.2840   45.6800 N   0  0  0  0  0  0  0  0  0  0  0  0
   48.4600   31.7970   43.1850 C   0  0  0  0  0  0  0  0  0  0  0  0
   48.3100   31.5820   41.9690 O   0  0  0  0  0  0  0  0  0  0  0  0
   47.8720   32.7770   44.0310 N   0  0  0  0  0  0  0  0  0  0  0  0
   49.1483   36.0650   40.3744 H   0  0  0  0  0  0  0  0  0  0  0  0
   48.7872   36.9042   41.6283 H   0  0  0  0  0  0  0  0  0  0  0  0
   49.7598   34.7474   43.1481 H   0  0  0  0  0  0  0  0  0  0  0  0
   50.3507   34.0387   41.8862 H   0  0  0  0  0  0  0  0  0  0  0  0
   48.1238   32.8168   40.7151 H   0  0  0  0  0  0  0  0  0  0  0  0
   47.6569   35.3384   39.0088 H   0  0  0  0  0  0  0  0  0  0  0  0
   49.2285   34.5560   39.2098 H   0  0  0  0  0  0  0  0  0  0  0  0
   48.2655   33.5533   37.1976 H   0  0  0  0  0  0  0  0  0  0  0  0
   48.0168   32.3249   38.4577 H   0  0  0  0  0  0  0  0  0  0  0  0
   44.7418   32.7832   39.0357 H   0  0  0  0  0  0  0  0  0  0  0  0
   46.2743   31.8866   39.3050 H   0  0  0  0  0  0  0  0  0  0  0  0
   45.7750   34.7936   40.1497 H   0  0  0  0  0  0  0  0  0  0  0  0
   45.6557   33.3908   41.2452 H   0  0  0  0  0  0  0  0  0  0  0  0
   46.1157   36.4687   41.9151 H   0  0  0  0  0  0  0  0  0  0  0  0
   43.4513   36.0771   45.5427 H   0  0  0  0  0  0  0  0  0  0  0  0
   43.9895   34.6729   46.5025 H   0  0  0  0  0  0  0  0  0  0  0  0
   49.1631   31.1173   43.6886 H   0  0  0  0  0  0  0  0  0  0  0  0
   48.2110   32.6857   44.9993 H   0  0  0  0  0  0  0  0  0  0  0  0
  1  3  1  0
  1 11  1  0
  2  1  1  0
  2  3  1  0
  4  1  1  0
  5  4  1  0
  6  5  1  0
  7  6  1  0
  7  8  1  0
  8  9  1  0
  9  4  1  0
 10 11  2  0
 10 15  1  0
 11 12  1  0
 12 19  1  0
 12 13  2  0
 14 13  1  0
 14 16  1  0
 15 14  2  0
 17 19  1  0
 18 17  2  0
  2 20  1  0
  2 21  1  0
  3 22  1  0
  3 23  1  0
  4 24  1  0
  5 25  1  0
  5 26  1  0
  6 27  1  0
  6 28  1  0
  8 29  1  0
  8 30  1  0
  9 31  1  0
  9 32  1  0
 10 33  1  0
 16 34  1  0
 16 35  1  0
 17 36  1  0
 19 37  1  0
M  ISO  8  20  13  21  13  22  13  23  13  24  13  25  13  26  13  27  13
M  ISO  7  28  13  29  13  30  13  31  13  32  13  33  14  36   6
M  END
>  <minimizedAffinity>  (1) 
-5.912323

>  <minimizedRMSD>  (1) 
0.0442403033

$$$$
