
     RDKit          3D

 16 16  0  0  0  0  0  0  0  0999 V2000
   44.5380   35.8690   44.6890 C   0  0  0  0  0  0  0  0  0  0  0  0
   45.2100   35.8240   43.4410 C   0  0  0  0  0  0  0  0  0  0  0  0
   46.1240   34.7710   43.2810 C   0  0  0  0  0  0  0  0  0  0  0  0
   46.3190   33.8690   44.2960 N   0  0  0  0  0  0  0  0  0  0  0  0
   45.6260   33.9870   45.4720 C   0  0  0  0  0  0  0  0  0  0  0  0
   44.7470   34.9780   45.6580 N   0  0  0  0  0  0  0  0  0  0  0  0
   46.8060   34.7330   41.9890 C   0  0  0  0  0  0  0  0  0  0  0  0
   47.5740   33.5690   41.9090 F   0  0  0  0  0  0  0  0  0  0  0  0
   47.7020   35.7730   41.9760 F   0  0  0  0  0  0  0  0  0  0  0  0
   45.9500   34.7170   40.9180 F   0  0  0  0  0  0  0  0  0  0  0  0
   45.8490   33.0010   46.5610 C   0  0  0  0  0  0  0  0  0  0  0  0
   45.6760   31.7250   46.0360 F   0  0  0  0  0  0  0  0  0  0  0  0
   47.1260   33.0730   47.0590 F   0  0  0  0  0  0  0  0  0  0  0  0
   44.9040   33.2430   47.5610 F   0  0  0  0  0  0  0  0  0  0  0  0
   43.8114   36.6758   44.8653 H   0  0  0  0  0  0  0  0  0  0  0  0
   45.0268   36.5660   42.6499 H   0  0  0  0  0  0  0  0  0  0  0  0
  1  6  2  0
  2  1  1  0
  3  2  2  0
  3  4  1  0
  4  5  2  0
  5  6  1  0
  5 11  1  0
  7  3  1  0
  8  7  1  0
  9  7  1  0
 10  7  1  0
 11 13  1  0
 11 14  1  0
 12 11  1  0
  1 15  1  0
  2 16  1  0
M  ISO  2  15  14  16  14
M  END
>  <minimizedAffinity>  (1) 
-4.91746426

>  <minimizedRMSD>  (1) 
0.565786183

$$$$
