
     RDKit          3D

 42 45  0  0  0  0  0  0  0  0999 V2000
   48.0300   34.5490   41.7220 C   0  0  0  0  0  0  0  0  0  0  0  0
   48.8840   35.7780   41.4360 C   0  0  0  0  0  0  0  0  0  0  0  0
   49.4330   34.6230   42.1140 C   0  0  0  0  0  0  0  0  0  0  0  0
   47.6550   33.7680   40.5070 C   0  0  0  0  0  0  0  0  0  0  0  0
   48.1430   34.3740   39.1910 C   0  0  0  0  0  0  0  0  0  0  0  0
   47.7770   33.3060   38.1410 C   0  0  0  0  0  0  0  0  0  0  0  0
   46.4130   33.3840   37.9480 O   0  0  0  0  0  0  0  0  0  0  0  0
   45.8610   32.8160   39.1290 C   0  0  0  0  0  0  0  0  0  0  0  0
   46.1280   33.7480   40.3060 C   0  0  0  0  0  0  0  0  0  0  0  0
   46.2030   35.8820   42.8140 C   0  0  0  0  0  0  0  0  0  0  0  0
   46.9700   34.7160   42.7820 C   0  0  0  0  0  0  0  0  0  0  0  0
   46.7150   33.7300   43.7550 C   0  0  0  0  0  0  0  0  0  0  0  0
   45.7530   33.9360   44.6730 N   0  0  0  0  0  0  0  0  0  0  0  0
   45.0410   35.0870   44.6550 C   0  0  0  0  0  0  0  0  0  0  0  0
   45.2490   36.0360   43.7590 N   0  0  0  0  0  0  0  0  0  0  0  0
   44.0130   35.3470   45.6070 N   0  0  0  0  0  0  0  0  0  0  0  0
   47.4990   32.5030   43.7530 C   0  0  0  0  0  0  0  0  0  0  0  0
   47.2250   31.6800   44.8320 C   0  0  0  0  0  0  0  0  0  0  0  0
   47.8420   30.4630   45.0450 C   0  0  0  0  0  0  0  0  0  0  0  0
   48.7960   30.0240   44.1340 C   0  0  0  0  0  0  0  0  0  0  0  0
   49.0510   30.8620   43.0680 C   0  0  0  0  0  0  0  0  0  0  0  0
   48.4270   32.0410   42.8960 N   0  0  0  0  0  0  0  0  0  0  0  0
   49.1896   36.0120   40.4055 H   0  0  0  0  0  0  0  0  0  0  0  0
   48.8093   36.8538   41.6529 H   0  0  0  0  0  0  0  0  0  0  0  0
   49.6935   34.6950   43.1803 H   0  0  0  0  0  0  0  0  0  0  0  0
   50.3065   33.9802   41.9303 H   0  0  0  0  0  0  0  0  0  0  0  0
   48.1110   32.7855   40.6989 H   0  0  0  0  0  0  0  0  0  0  0  0
   47.6283   35.3233   38.9813 H   0  0  0  0  0  0  0  0  0  0  0  0
   49.2171   34.6111   39.2024 H   0  0  0  0  0  0  0  0  0  0  0  0
   48.3046   33.5073   37.1970 H   0  0  0  0  0  0  0  0  0  0  0  0
   48.0694   32.3020   38.4824 H   0  0  0  0  0  0  0  0  0  0  0  0
   44.7762   32.6852   39.0020 H   0  0  0  0  0  0  0  0  0  0  0  0
   46.3252   31.8372   39.3201 H   0  0  0  0  0  0  0  0  0  0  0  0
   45.7606   34.7601   40.0808 H   0  0  0  0  0  0  0  0  0  0  0  0
   45.6108   33.4028   41.2134 H   0  0  0  0  0  0  0  0  0  0  0  0
   46.3749   36.6746   42.0709 H   0  0  0  0  0  0  0  0  0  0  0  0
   43.4876   36.2321   45.5688 H   0  0  0  0  0  0  0  0  0  0  0  0
   43.7954   34.6498   46.3333 H   0  0  0  0  0  0  0  0  0  0  0  0
   46.4727   32.0146   45.5615 H   0  0  0  0  0  0  0  0  0  0  0  0
   47.5828   29.8508   45.9214 H   0  0  0  0  0  0  0  0  0  0  0  0
   49.3178   29.0633   44.2561 H   0  0  0  0  0  0  0  0  0  0  0  0
   49.7995   30.5514   42.3242 H   0  0  0  0  0  0  0  0  0  0  0  0
  1  3  1  0
  1 11  1  0
  2  1  1  0
  2  3  1  0
  4  1  1  0
  5  4  1  0
  6  5  1  0
  7  6  1  0
  7  8  1  0
  8  9  1  0
  9  4  1  0
 10 15  2  0
 11 10  1  0
 11 12  2  0
 12 13  1  0
 14 13  2  0
 14 16  1  0
 15 14  1  0
 17 12  1  0
 17 18  2  0
 18 19  1  0
 20 19  2  0
 21 20  1  0
 22 21  2  0
 22 17  1  0
  2 23  1  0
  2 24  1  0
  3 25  1  0
  3 26  1  0
  4 27  1  0
  5 28  1  0
  5 29  1  0
  6 30  1  0
  6 31  1  0
  8 32  1  0
  8 33  1  0
  9 34  1  0
  9 35  1  0
 10 36  1  0
 16 37  1  0
 16 38  1  0
 18 39  1  0
 19 40  1  0
 20 41  1  0
 21 42  1  0
M  ISO  8  23  13  24  13  25  13  26  13  27  13  28  13  29  13  30  13
M  ISO  8  31  13  32  13  33  13  34  13  35  13  36  14  39  14  40  14
M  ISO  2  41  14  42  14
M  END
>  <minimizedAffinity>  (1) 
-5.88389587

>  <minimizedRMSD>  (1) 
0.462448388

$$$$
