
     RDKit          3D

 39 41  0  0  0  0  0  0  0  0999 V2000
   48.0480   34.5750   41.7290 C   0  0  0  0  0  0  0  0  0  0  0  0
   48.8630   35.8230   41.4070 C   0  0  0  0  0  0  0  0  0  0  0  0
   49.4570   34.6700   42.0950 C   0  0  0  0  0  0  0  0  0  0  0  0
   47.6550   33.7940   40.5190 C   0  0  0  0  0  0  0  0  0  0  0  0
   48.1320   34.3560   39.2020 C   0  0  0  0  0  0  0  0  0  0  0  0
   47.7390   33.3120   38.1550 C   0  0  0  0  0  0  0  0  0  0  0  0
   46.3740   33.4060   37.9720 O   0  0  0  0  0  0  0  0  0  0  0  0
   45.8350   32.8320   39.1510 C   0  0  0  0  0  0  0  0  0  0  0  0
   46.1330   33.7370   40.3420 C   0  0  0  0  0  0  0  0  0  0  0  0
   46.1480   35.8030   42.7940 C   0  0  0  0  0  0  0  0  0  0  0  0
   47.0120   34.7100   42.8070 C   0  0  0  0  0  0  0  0  0  0  0  0
   46.8640   33.7770   43.8500 C   0  0  0  0  0  0  0  0  0  0  0  0
   45.9100   33.9680   44.7840 N   0  0  0  0  0  0  0  0  0  0  0  0
   45.1030   35.0360   44.7270 C   0  0  0  0  0  0  0  0  0  0  0  0
   45.2080   35.9450   43.7560 N   0  0  0  0  0  0  0  0  0  0  0  0
   44.0860   35.2770   45.6830 N   0  0  0  0  0  0  0  0  0  0  0  0
   47.7140   32.5750   43.9290 C   0  0  0  0  0  0  0  0  0  0  0  0
   47.1470   31.5650   44.9060 C   0  0  0  0  0  0  0  0  0  0  0  0
   49.1400   36.0516   40.3673 H   0  0  0  0  0  0  0  0  0  0  0  0
   48.7689   36.8997   41.6117 H   0  0  0  0  0  0  0  0  0  0  0  0
   49.7370   34.7566   43.1552 H   0  0  0  0  0  0  0  0  0  0  0  0
   50.3375   34.0395   41.9022 H   0  0  0  0  0  0  0  0  0  0  0  0
   48.1241   32.8197   40.7205 H   0  0  0  0  0  0  0  0  0  0  0  0
   47.6402   35.3172   38.9919 H   0  0  0  0  0  0  0  0  0  0  0  0
   49.2151   34.5481   39.2049 H   0  0  0  0  0  0  0  0  0  0  0  0
   48.2604   33.5144   37.2078 H   0  0  0  0  0  0  0  0  0  0  0  0
   48.0179   32.3018   38.4894 H   0  0  0  0  0  0  0  0  0  0  0  0
   44.7464   32.7202   39.0393 H   0  0  0  0  0  0  0  0  0  0  0  0
   46.2908   31.8450   39.3186 H   0  0  0  0  0  0  0  0  0  0  0  0
   45.7404   34.7468   40.1519 H   0  0  0  0  0  0  0  0  0  0  0  0
   45.6551   33.3443   41.2516 H   0  0  0  0  0  0  0  0  0  0  0  0
   46.2310   36.5555   41.9959 H   0  0  0  0  0  0  0  0  0  0  0  0
   43.4884   36.1118   45.5999 H   0  0  0  0  0  0  0  0  0  0  0  0
   43.9440   34.6174   46.4613 H   0  0  0  0  0  0  0  0  0  0  0  0
   47.7765   32.1138   42.9323 H   0  0  0  0  0  0  0  0  0  0  0  0
   48.7117   32.8769   44.2805 H   0  0  0  0  0  0  0  0  0  0  0  0
   47.3371   31.9037   45.9351 H   0  0  0  0  0  0  0  0  0  0  0  0
   46.0630   31.4687   44.7460 H   0  0  0  0  0  0  0  0  0  0  0  0
   47.6293   30.5894   44.7460 H   0  0  0  0  0  0  0  0  0  0  0  0
  1  3  1  0
  1 11  1  0
  2  1  1  0
  2  3  1  0
  4  1  1  0
  5  4  1  0
  6  5  1  0
  7  6  1  0
  7  8  1  0
  8  9  1  0
  9  4  1  0
 10 11  2  0
 10 15  1  0
 11 12  1  0
 12 17  1  0
 12 13  2  0
 14 13  1  0
 14 16  1  0
 15 14  2  0
 17 18  1  0
  2 19  1  0
  2 20  1  0
  3 21  1  0
  3 22  1  0
  4 23  1  0
  5 24  1  0
  5 25  1  0
  6 26  1  0
  6 27  1  0
  8 28  1  0
  8 29  1  0
  9 30  1  0
  9 31  1  0
 10 32  1  0
 16 33  1  0
 16 34  1  0
 17 35  1  0
 17 36  1  0
 18 37  1  0
 18 38  1  0
 18 39  1  0
M  ISO  8  19  13  20  13  21  13  22  13  23  13  24  13  25  13  26  13
M  ISO  8  27  13  28  13  29  13  30  13  31  13  32  14  35   8  36   8
M  ISO  3  37   8  38   8  39   8
M  END
>  <minimizedAffinity>  (1) 
-5.48096609

>  <minimizedRMSD>  (1) 
0.103423148

$$$$
