
     RDKit          3D

 17 17  0  0  0  0  0  0  0  0999 V2000
   44.5130   36.1840   44.3150 C   0  0  0  0  0  0  0  0  0  0  0  0
   45.3130   35.9920   43.1510 C   0  0  0  0  0  0  0  0  0  0  0  0
   46.1800   34.8740   43.1860 C   0  0  0  0  0  0  0  0  0  0  0  0
   46.2020   34.0730   44.2870 N   0  0  0  0  0  0  0  0  0  0  0  0
   45.4050   34.3250   45.3620 C   0  0  0  0  0  0  0  0  0  0  0  0
   44.5670   35.3730   45.3710 N   0  0  0  0  0  0  0  0  0  0  0  0
   46.4060   32.3510   46.3780 C   0  0  0  0  0  0  0  0  0  0  0  0
   47.1410   32.1210   45.3840 O   0  0  0  0  0  0  0  0  0  0  0  0
   45.4900   33.4430   46.4660 N   0  0  0  0  0  0  0  0  0  0  0  0
   46.9900   34.6910   41.9910 C   0  0  0  0  0  0  0  0  0  0  0  0
   47.7710   33.5580   42.1370 F   0  0  0  0  0  0  0  0  0  0  0  0
   47.8860   35.7590   41.9480 F   0  0  0  0  0  0  0  0  0  0  0  0
   46.2680   34.5660   40.8370 F   0  0  0  0  0  0  0  0  0  0  0  0
   43.8211   37.0387   44.3428 H   0  0  0  0  0  0  0  0  0  0  0  0
   45.2601   36.6671   42.2842 H   0  0  0  0  0  0  0  0  0  0  0  0
   46.4730   31.6661   47.2361 H   0  0  0  0  0  0  0  0  0  0  0  0
   44.9100   33.5843   47.3054 H   0  0  0  0  0  0  0  0  0  0  0  0
  1  6  2  0
  2  3  2  0
  2  1  1  0
  3  4  1  0
  4  5  2  0
  5  6  1  0
  5  9  1  0
  7  9  1  0
  8  7  2  0
 10 11  1  0
 10  3  1  0
 12 10  1  0
 13 10  1  0
  1 14  1  0
  2 15  1  0
  7 16  1  0
  9 17  1  0
M  ISO  3  14  14  15  14  16   6
M  END
>  <minimizedAffinity>  (1) 
-4.82689476

>  <minimizedRMSD>  (1) 
0.270135909

$$$$
