
     RDKit          3D

 44 47  0  0  0  0  0  0  0  0999 V2000
   47.3150   31.7810   42.5770 C   0  0  0  0  0  0  0  0  0  0  0  0
   46.9860   30.5730   43.4510 C   0  0  0  0  0  0  0  0  0  0  0  0
   46.5300   30.6500   42.0710 C   0  0  0  0  0  0  0  0  0  0  0  0
   48.7440   31.8800   42.1930 C   0  0  0  0  0  0  0  0  0  0  0  0
   49.0700   31.3720   40.7940 C   0  0  0  0  0  0  0  0  0  0  0  0
   50.5540   31.7190   40.5910 C   0  0  0  0  0  0  0  0  0  0  0  0
   51.2770   30.7950   41.3430 O   0  0  0  0  0  0  0  0  0  0  0  0
   51.0720   31.2130   42.6860 C   0  0  0  0  0  0  0  0  0  0  0  0
   49.6180   30.9930   43.0780 C   0  0  0  0  0  0  0  0  0  0  0  0
   46.1220   33.2490   44.2220 C   0  0  0  0  0  0  0  0  0  0  0  0
   46.6110   33.0540   42.9390 C   0  0  0  0  0  0  0  0  0  0  0  0
   46.4040   34.1010   42.0190 C   0  0  0  0  0  0  0  0  0  0  0  0
   45.7640   35.2130   42.3990 N   0  0  0  0  0  0  0  0  0  0  0  0
   45.3130   35.3410   43.6620 C   0  0  0  0  0  0  0  0  0  0  0  0
   45.4800   34.3900   44.5630 N   0  0  0  0  0  0  0  0  0  0  0  0
   44.6390   36.5010   44.1200 N   0  0  0  0  0  0  0  0  0  0  0  0
   47.9760   34.6600   40.1120 C   0  0  0  0  0  0  0  0  0  0  0  0
   46.8280   34.0610   40.6410 C   0  0  0  0  0  0  0  0  0  0  0  0
   46.0780   33.3350   39.7290 C   0  0  0  0  0  0  0  0  0  0  0  0
   46.4040   33.1870   38.3880 C   0  0  0  0  0  0  0  0  0  0  0  0
   47.5450   33.7930   37.9110 C   0  0  0  0  0  0  0  0  0  0  0  0
   48.3330   34.5330   38.7820 C   0  0  0  0  0  0  0  0  0  0  0  0
   49.4350   36.0440   41.7770 N   0  0  0  0  0  0  0  0  0  0  0  0
   48.7680   35.4250   41.0300 C   0  0  0  0  0  0  0  0  0  0  0  0
   47.7770   29.8627   43.7333 H   0  0  0  0  0  0  0  0  0  0  0  0
   46.5055   30.4196   44.4285 H   0  0  0  0  0  0  0  0  0  0  0  0
   45.4586   30.7851   41.8615 H   0  0  0  0  0  0  0  0  0  0  0  0
   46.6291   29.9856   41.1999 H   0  0  0  0  0  0  0  0  0  0  0  0
   48.9393   32.9589   42.2810 H   0  0  0  0  0  0  0  0  0  0  0  0
   48.9130   30.2852   40.7292 H   0  0  0  0  0  0  0  0  0  0  0  0
   48.4268   31.8253   40.0254 H   0  0  0  0  0  0  0  0  0  0  0  0
   50.8223   31.6380   39.5273 H   0  0  0  0  0  0  0  0  0  0  0  0
   50.7709   32.7499   40.9074 H   0  0  0  0  0  0  0  0  0  0  0  0
   51.7226   30.6290   43.3536 H   0  0  0  0  0  0  0  0  0  0  0  0
   51.3143   32.2823   42.7746 H   0  0  0  0  0  0  0  0  0  0  0  0
   49.4725   31.2628   44.1344 H   0  0  0  0  0  0  0  0  0  0  0  0
   49.3446   29.9360   42.9435 H   0  0  0  0  0  0  0  0  0  0  0  0
   46.2588   32.4608   44.9770 H   0  0  0  0  0  0  0  0  0  0  0  0
   44.3114   36.5550   45.0950 H   0  0  0  0  0  0  0  0  0  0  0  0
   44.4769   37.2898   43.4778 H   0  0  0  0  0  0  0  0  0  0  0  0
   45.1635   32.8434   40.0922 H   0  0  0  0  0  0  0  0  0  0  0  0
   45.7623   32.5960   37.7180 H   0  0  0  0  0  0  0  0  0  0  0  0
   47.8284   33.6919   36.8530 H   0  0  0  0  0  0  0  0  0  0  0  0
   49.2467   35.0212   38.4121 H   0  0  0  0  0  0  0  0  0  0  0  0
  1 11  1  0
  1  2  1  0
  3  1  1  0
  3  2  1  0
  4  1  1  0
  4  9  1  0
  5  4  1  0
  6  5  1  0
  6  7  1  0
  7  8  1  0
  8  9  1  0
 10 15  2  0
 11 10  1  0
 12 13  1  0
 12 11  2  0
 13 14  2  0
 14 16  1  0
 14 15  1  0
 17 18  2  0
 17 24  1  0
 18 12  1  0
 19 18  1  0
 20 19  2  0
 21 20  1  0
 21 22  2  0
 22 17  1  0
 24 23  3  0
  2 25  1  0
  2 26  1  0
  3 27  1  0
  3 28  1  0
  4 29  1  0
  5 30  1  0
  5 31  1  0
  6 32  1  0
  6 33  1  0
  8 34  1  0
  8 35  1  0
  9 36  1  0
  9 37  1  0
 10 38  1  0
 16 39  1  0
 16 40  1  0
 19 41  1  0
 20 42  1  0
 21 43  1  0
 22 44  1  0
M  ISO  8  25  13  26  13  27  13  28  13  29  13  30  13  31  13  32  13
M  ISO  8  33  13  34  13  35  13  36  13  37  13  38  14  41  14  42  14
M  ISO  2  43  14  44  14
M  END
>  <minimizedAffinity>  (1) 
-5.26145458

>  <minimizedRMSD>  (1) 
4.70724106

$$$$
