
     RDKit          3D

 44 47  0  0  0  0  0  0  0  0999 V2000
   48.1800   34.5800   41.6630 C   0  0  0  0  0  0  0  0  0  0  0  0
   48.9840   35.8540   41.4080 C   0  0  0  0  0  0  0  0  0  0  0  0
   49.5260   34.7200   42.1390 C   0  0  0  0  0  0  0  0  0  0  0  0
   47.8720   33.8420   40.4120 C   0  0  0  0  0  0  0  0  0  0  0  0
   48.2780   34.5520   39.1330 C   0  0  0  0  0  0  0  0  0  0  0  0
   47.9850   33.5400   38.0110 C   0  0  0  0  0  0  0  0  0  0  0  0
   46.5880   33.5410   37.8370 O   0  0  0  0  0  0  0  0  0  0  0  0
   46.1400   32.8140   38.9730 C   0  0  0  0  0  0  0  0  0  0  0  0
   46.3420   33.6630   40.2220 C   0  0  0  0  0  0  0  0  0  0  0  0
   46.2740   35.8980   42.6810 C   0  0  0  0  0  0  0  0  0  0  0  0
   47.0530   34.7300   42.6500 C   0  0  0  0  0  0  0  0  0  0  0  0
   46.7460   33.7260   43.5850 C   0  0  0  0  0  0  0  0  0  0  0  0
   45.7200   33.9570   44.4510 N   0  0  0  0  0  0  0  0  0  0  0  0
   45.0220   35.0810   44.4300 C   0  0  0  0  0  0  0  0  0  0  0  0
   45.2770   36.0400   43.5740 N   0  0  0  0  0  0  0  0  0  0  0  0
   43.9430   35.3240   45.3370 N   0  0  0  0  0  0  0  0  0  0  0  0
   47.4750   32.4990   43.6380 C   0  0  0  0  0  0  0  0  0  0  0  0
   47.7500   31.8310   44.6670 O   0  0  0  0  0  0  0  0  0  0  0  0
   48.1960   31.4430   42.9780 C   0  0  0  0  0  0  0  0  0  0  0  0
   47.5360   30.5550   42.1190 C   0  0  0  0  0  0  0  0  0  0  0  0
   48.1130   29.4960   41.3840 C   0  0  0  0  0  0  0  0  0  0  0  0
   49.4590   29.4350   41.6170 C   0  0  0  0  0  0  0  0  0  0  0  0
   50.2060   30.2390   42.4230 C   0  0  0  0  0  0  0  0  0  0  0  0
   49.4820   31.1570   43.0160 N   0  0  0  0  0  0  0  0  0  0  0  0
   49.3475   36.0902   40.3970 H   0  0  0  0  0  0  0  0  0  0  0  0
   48.8480   36.9286   41.5996 H   0  0  0  0  0  0  0  0  0  0  0  0
   49.7086   34.8129   43.2198 H   0  0  0  0  0  0  0  0  0  0  0  0
   50.4348   34.1115   42.0216 H   0  0  0  0  0  0  0  0  0  0  0  0
   48.4347   32.9065   40.5467 H   0  0  0  0  0  0  0  0  0  0  0  0
   47.6849   35.4678   38.9933 H   0  0  0  0  0  0  0  0  0  0  0  0
   49.3334   34.8618   39.1473 H   0  0  0  0  0  0  0  0  0  0  0  0
   48.4855   33.8465   37.0806 H   0  0  0  0  0  0  0  0  0  0  0  0
   48.3564   32.5371   38.2683 H   0  0  0  0  0  0  0  0  0  0  0  0
   45.0724   32.5748   38.8593 H   0  0  0  0  0  0  0  0  0  0  0  0
   46.7136   31.8798   39.0641 H   0  0  0  0  0  0  0  0  0  0  0  0
   45.8608   34.6437   40.0931 H   0  0  0  0  0  0  0  0  0  0  0  0
   45.8932   33.1776   41.1012 H   0  0  0  0  0  0  0  0  0  0  0  0
   46.4814   36.7077   41.9659 H   0  0  0  0  0  0  0  0  0  0  0  0
   43.4217   36.2112   45.2913 H   0  0  0  0  0  0  0  0  0  0  0  0
   43.6873   34.6118   46.0358 H   0  0  0  0  0  0  0  0  0  0  0  0
   46.4513   30.6979   42.0045 H   0  0  0  0  0  0  0  0  0  0  0  0
   47.5588   28.8172   40.7191 H   0  0  0  0  0  0  0  0  0  0  0  0
   50.0049   28.6394   41.0889 H   0  0  0  0  0  0  0  0  0  0  0  0
   51.2920   30.1307   42.5607 H   0  0  0  0  0  0  0  0  0  0  0  0
  1  3  1  0
  1 11  1  0
  2  1  1  0
  2  3  1  0
  4  1  1  0
  5  4  1  0
  6  5  1  0
  7  6  1  0
  7  8  1  0
  8  9  1  0
  9  4  1  0
 10 15  2  0
 11 10  1  0
 11 12  2  0
 12 17  1  0
 12 13  1  0
 14 13  2  0
 14 16  1  0
 15 14  1  0
 17 18  2  0
 19 24  1  0
 19 17  1  0
 20 19  2  0
 21 22  2  0
 21 20  1  0
 22 23  1  0
 23 24  2  0
  2 25  1  0
  2 26  1  0
  3 27  1  0
  3 28  1  0
  4 29  1  0
  5 30  1  0
  5 31  1  0
  6 32  1  0
  6 33  1  0
  8 34  1  0
  8 35  1  0
  9 36  1  0
  9 37  1  0
 10 38  1  0
 16 39  1  0
 16 40  1  0
 20 41  1  0
 21 42  1  0
 22 43  1  0
 23 44  1  0
M  ISO  8  25  13  26  13  27  13  28  13  29  13  30  13  31  13  32  13
M  ISO  8  33  13  34  13  35  13  36  13  37  13  38  14  41  14  42  14
M  ISO  2  43  14  44  14
M  END
>  <minimizedAffinity>  (1) 
-5.33919573

>  <minimizedRMSD>  (1) 
1.13750756

$$$$
