
     RDKit          3D

 44 47  0  0  1  0  0  0  0  0999 V2000
   48.1420   34.5890   41.6970 C   0  0  0  0  0  0  0  0  0  0  0  0
   49.0040   35.8210   41.4480 C   0  0  0  0  0  0  0  0  0  0  0  0
   49.4960   34.6440   42.1670 C   0  0  0  0  0  0  0  0  0  0  0  0
   47.8450   33.8310   40.4370 C   0  0  0  0  0  0  0  0  0  0  0  0
   48.2660   34.5230   39.1530 C   0  0  0  0  0  0  0  0  0  0  0  0
   47.9770   33.5250   38.0360 C   0  0  0  0  0  0  0  0  0  0  0  0
   46.5880   33.5380   37.8450 O   0  0  0  0  0  0  0  0  0  0  0  0
   46.1150   32.8250   38.9780 C   0  0  0  0  0  0  0  0  0  0  0  0
   46.3230   33.6690   40.2290 C   0  0  0  0  0  0  0  0  0  0  0  0
   46.2640   35.9510   42.6480 C   0  0  0  0  0  0  0  0  0  0  0  0
   47.0140   34.7650   42.6420 C   0  0  0  0  0  0  0  0  0  0  0  0
   46.6520   33.7910   43.5670 C   0  0  0  0  0  0  0  0  0  0  0  0
   45.6100   34.0230   44.4190 N   0  0  0  0  0  0  0  0  0  0  0  0
   44.9420   35.1770   44.3670 C   0  0  0  0  0  0  0  0  0  0  0  0
   45.2490   36.1310   43.5080 N   0  0  0  0  0  0  0  0  0  0  0  0
   43.8510   35.4610   45.2490 N   0  0  0  0  0  0  0  0  0  0  0  0
   47.3670   32.5550   43.7140 C   0  0  0  0  0  0  0  0  0  0  0  0
   47.8200   32.0410   44.8200 O   0  0  0  0  0  0  0  0  0  0  0  0
   47.8840   31.4420   42.9230 C   0  0  0  0  0  0  0  0  0  0  0  0
   47.3170   30.4920   42.1330 C   0  0  0  0  0  0  0  0  0  0  0  0
   48.2810   29.6120   41.7130 N   0  0  0  0  0  0  0  0  0  0  0  0
   49.4450   30.0070   42.2340 C   0  0  0  0  0  0  0  0  0  0  0  0
   49.1820   31.0970   42.9500 N   0  0  0  0  0  0  0  0  0  0  0  0
   49.3705   36.0495   40.4363 H   0  0  0  0  0  0  0  0  0  0  0  0
   48.9245   36.8991   41.6517 H   0  0  0  0  0  0  0  0  0  0  0  0
   49.6904   34.7132   43.2475 H   0  0  0  0  0  0  0  0  0  0  0  0
   50.3696   33.9882   42.0375 H   0  0  0  0  0  0  0  0  0  0  0  0
   48.4024   32.8952   40.5906 H   0  0  0  0  0  0  0  0  0  0  0  0
   47.6840   35.4446   39.0047 H   0  0  0  0  0  0  0  0  0  0  0  0
   49.3268   34.8130   39.1756 H   0  0  0  0  0  0  0  0  0  0  0  0
   48.4912   33.8283   37.1121 H   0  0  0  0  0  0  0  0  0  0  0  0
   48.3348   32.5182   38.2975 H   0  0  0  0  0  0  0  0  0  0  0  0
   45.0435   32.6090   38.8548 H   0  0  0  0  0  0  0  0  0  0  0  0
   46.6694   31.8799   39.0756 H   0  0  0  0  0  0  0  0  0  0  0  0
   45.8555   34.6560   40.0973 H   0  0  0  0  0  0  0  0  0  0  0  0
   45.8638   33.1834   41.1027 H   0  0  0  0  0  0  0  0  0  0  0  0
   46.5128   36.7495   41.9335 H   0  0  0  0  0  0  0  0  0  0  0  0
   43.3562   36.3619   45.1826 H   0  0  0  0  0  0  0  0  0  0  0  0
   43.5607   34.7644   45.9500 H   0  0  0  0  0  0  0  0  0  0  0  0
   48.3184   33.0885   43.5723 H   0  0  0  0  0  0  0  0  0  0  0  0
   47.4103   32.5059   45.5921 H   0  0  0  0  0  0  0  0  0  0  0  0
   46.2500   30.4377   41.8712 H   0  0  0  0  0  0  0  0  0  0  0  0
   48.1337   28.7937   41.1051 H   0  0  0  0  0  0  0  0  0  0  0  0
   50.4255   29.5272   42.0984 H   0  0  0  0  0  0  0  0  0  0  0  0
  1  3  1  0
  1 11  1  0
  2  1  1  0
  2  3  1  0
  4  1  1  0
  5  4  1  0
  6  5  1  0
  7  6  1  0
  7  8  1  0
  8  9  1  0
  9  4  1  0
 10 15  2  0
 11 10  1  0
 11 12  2  0
 12 17  1  0
 12 13  1  0
 14 13  2  0
 14 16  1  0
 15 14  1  0
 17 18  1  0
 19 23  1  0
 19 17  1  0
 20 19  2  0
 21 20  1  0
 21 22  1  0
 22 23  2  0
  2 24  1  0
  2 25  1  0
  3 26  1  0
  3 27  1  0
  4 28  1  0
  5 29  1  0
  5 30  1  0
  6 31  1  0
  6 32  1  0
  8 33  1  0
  8 34  1  0
  9 35  1  0
  9 36  1  0
 10 37  1  0
 16 38  1  0
 16 39  1  0
 17 40  1  0
 18 41  1  0
 20 42  1  0
 21 43  1  0
 22 44  1  0
M  ISO  8  24  13  25  13  26  13  27  13  28  13  29  13  30  13  31  13
M  ISO  8  32  13  33  13  34  13  35  13  36  13  37  14  40   8  41   3
M  ISO  3  42  14  43   9  44  14
M  END
>  <minimizedAffinity>  (1) 
-5.12488222

>  <minimizedRMSD>  (1) 
1.46121466

$$$$
