
     RDKit          3D

 44 47  0  0  1  0  0  0  0  0999 V2000
   47.1650   34.0200   41.5860 C   0  0  0  0  0  0  0  0  0  0  0  0
   48.0340   35.1870   41.0990 C   0  0  0  0  0  0  0  0  0  0  0  0
   48.5980   33.9640   41.6600 C   0  0  0  0  0  0  0  0  0  0  0  0
   46.4540   33.3060   40.4940 C   0  0  0  0  0  0  0  0  0  0  0  0
   47.0490   33.4930   39.1120 C   0  0  0  0  0  0  0  0  0  0  0  0
   46.2390   32.5820   38.1940 C   0  0  0  0  0  0  0  0  0  0  0  0
   45.0080   33.2410   37.9910 O   0  0  0  0  0  0  0  0  0  0  0  0
   44.3450   33.0390   39.2260 C   0  0  0  0  0  0  0  0  0  0  0  0
   45.0200   33.8520   40.3120 C   0  0  0  0  0  0  0  0  0  0  0  0
   45.8870   35.5920   43.0910 C   0  0  0  0  0  0  0  0  0  0  0  0
   46.3710   34.3030   42.8320 C   0  0  0  0  0  0  0  0  0  0  0  0
   46.1030   33.3140   43.7700 C   0  0  0  0  0  0  0  0  0  0  0  0
   45.3910   33.6440   44.8860 N   0  0  0  0  0  0  0  0  0  0  0  0
   44.9570   34.8960   45.0770 C   0  0  0  0  0  0  0  0  0  0  0  0
   45.1900   35.8570   44.2120 N   0  0  0  0  0  0  0  0  0  0  0  0
   44.2110   35.2640   46.2420 N   0  0  0  0  0  0  0  0  0  0  0  0
   46.5840   31.9750   43.6580 C   0  0  0  0  0  0  0  0  0  0  0  0
   45.9290   30.9440   43.2420 O   0  0  0  0  0  0  0  0  0  0  0  0
   47.8220   31.0650   43.8980 C   0  0  0  0  0  0  0  0  0  0  0  0
   47.7420   30.4460   45.0460 C   0  0  0  0  0  0  0  0  0  0  0  0
   48.6870   29.5370   45.5580 C   0  0  0  0  0  0  0  0  0  0  0  0
   49.7440   29.3570   44.6850 C   0  0  0  0  0  0  0  0  0  0  0  0
   49.2630   30.4910   43.2680 S   0  0  0  0  0  0  0  0  0  0  0  0
   48.1272   35.4019   40.0242 H   0  0  0  0  0  0  0  0  0  0  0  0
   48.1069   36.2641   41.3102 H   0  0  0  0  0  0  0  0  0  0  0  0
   49.0882   33.9990   42.6441 H   0  0  0  0  0  0  0  0  0  0  0  0
   49.3436   33.2419   41.2958 H   0  0  0  0  0  0  0  0  0  0  0  0
   46.5166   32.2563   40.8168 H   0  0  0  0  0  0  0  0  0  0  0  0
   46.9569   34.5415   38.7922 H   0  0  0  0  0  0  0  0  0  0  0  0
   48.1205   33.2452   39.0916 H   0  0  0  0  0  0  0  0  0  0  0  0
   46.7609   32.4409   37.2361 H   0  0  0  0  0  0  0  0  0  0  0  0
   46.0973   31.5841   38.6346 H   0  0  0  0  0  0  0  0  0  0  0  0
   43.2955   33.3550   39.1327 H   0  0  0  0  0  0  0  0  0  0  0  0
   44.3896   31.9724   39.4911 H   0  0  0  0  0  0  0  0  0  0  0  0
   45.0582   34.9109   40.0167 H   0  0  0  0  0  0  0  0  0  0  0  0
   44.4580   33.7730   41.2543 H   0  0  0  0  0  0  0  0  0  0  0  0
   46.0791   36.3988   42.3684 H   0  0  0  0  0  0  0  0  0  0  0  0
   43.8898   36.2352   46.3624 H   0  0  0  0  0  0  0  0  0  0  0  0
   43.9954   34.5576   46.9599 H   0  0  0  0  0  0  0  0  0  0  0  0
   46.9149   32.1799   42.6292 H   0  0  0  0  0  0  0  0  0  0  0  0
   45.6001   30.4263   44.0192 H   0  0  0  0  0  0  0  0  0  0  0  0
   46.8582   30.6536   45.6671 H   0  0  0  0  0  0  0  0  0  0  0  0
   48.5959   29.0327   46.5313 H   0  0  0  0  0  0  0  0  0  0  0  0
   50.6327   28.7177   44.7924 H   0  0  0  0  0  0  0  0  0  0  0  0
  1  3  1  0
  1 11  1  0
  2  1  1  0
  2  3  1  0
  4  1  1  0
  5  4  1  0
  6  5  1  0
  7  6  1  0
  7  8  1  0
  8  9  1  0
  9  4  1  0
 10 15  2  0
 11 10  1  0
 11 12  2  0
 12 13  1  0
 13 14  2  0
 14 16  1  0
 15 14  1  0
 17 18  1  0
 17 12  1  0
 17 19  1  0
 19 20  2  0
 20 21  1  0
 22 21  2  0
 23 19  1  0
 23 22  1  0
  2 24  1  0
  2 25  1  0
  3 26  1  0
  3 27  1  0
  4 28  1  0
  5 29  1  0
  5 30  1  0
  6 31  1  0
  6 32  1  0
  8 33  1  0
  8 34  1  0
  9 35  1  0
  9 36  1  0
 10 37  1  0
 16 38  1  0
 16 39  1  0
 17 40  1  0
 18 41  1  0
 20 42  1  0
 21 43  1  0
 22 44  1  0
M  ISO  8  24  13  25  13  26  13  27  13  28  13  29  13  30  13  31  13
M  ISO  8  32  13  33  13  34  13  35  13  36  13  37  14  40   8  41   3
M  ISO  3  42  14  43  14  44  14
M  END
>  <minimizedAffinity>  (1) 
-5.02200556

>  <minimizedRMSD>  (1) 
1.74578226

$$$$
