
     RDKit          3D

 36 39  0  0  0  0  0  0  0  0999 V2000
   45.9380   32.7280   46.9770 C   0  0  0  0  0  0  0  0  0  0  0  0
   47.1040   31.9880   47.0700 C   0  0  0  0  0  0  0  0  0  0  0  0
   47.3430   31.1090   48.1130 C   0  0  0  0  0  0  0  0  0  0  0  0
   46.3840   30.9570   49.1090 C   0  0  0  0  0  0  0  0  0  0  0  0
   45.2240   31.6730   49.0440 C   0  0  0  0  0  0  0  0  0  0  0  0
   45.0260   32.5360   47.9890 C   0  0  0  0  0  0  0  0  0  0  0  0
   48.6320   30.4320   48.0460 C   0  0  0  0  0  0  0  0  0  0  0  0
   48.6850   29.4210   47.0780 C   0  0  0  0  0  0  0  0  0  0  0  0
   49.8040   28.6600   46.8140 C   0  0  0  0  0  0  0  0  0  0  0  0
   50.9370   28.9280   47.5650 C   0  0  0  0  0  0  0  0  0  0  0  0
   50.9160   29.9150   48.5230 C   0  0  0  0  0  0  0  0  0  0  0  0
   51.9990   30.2390   49.3180 C   0  0  0  0  0  0  0  0  0  0  0  0
   51.9330   31.2430   50.2850 C   0  0  0  0  0  0  0  0  0  0  0  0
   50.7690   31.9560   50.4840 C   0  0  0  0  0  0  0  0  0  0  0  0
   49.6860   31.6400   49.6980 C   0  0  0  0  0  0  0  0  0  0  0  0
   49.7820   30.6560   48.7640 C   0  0  0  0  0  0  0  0  0  0  0  0
   44.5740   35.5150   45.0600 C   0  0  0  0  0  0  0  0  0  0  0  0
   45.2600   35.4210   43.8270 C   0  0  0  0  0  0  0  0  0  0  0  0
   46.1940   34.3980   43.6480 C   0  0  0  0  0  0  0  0  0  0  0  0
   46.3870   33.5470   44.6840 N   0  0  0  0  0  0  0  0  0  0  0  0
   45.7240   33.6470   45.8610 C   0  0  0  0  0  0  0  0  0  0  0  0
   44.8160   34.6360   46.0460 N   0  0  0  0  0  0  0  0  0  0  0  0
   47.8683   32.1023   46.2872 H   0  0  0  0  0  0  0  0  0  0  0  0
   46.5596   30.2634   49.9445 H   0  0  0  0  0  0  0  0  0  0  0  0
   44.4567   31.5623   49.8244 H   0  0  0  0  0  0  0  0  0  0  0  0
   44.0848   33.1042   47.9535 H   0  0  0  0  0  0  0  0  0  0  0  0
   47.7762   29.2215   46.4912 H   0  0  0  0  0  0  0  0  0  0  0  0
   49.7975   27.8760   46.0425 H   0  0  0  0  0  0  0  0  0  0  0  0
   51.8568   28.3493   47.3946 H   0  0  0  0  0  0  0  0  0  0  0  0
   52.9420   29.6886   49.1845 H   0  0  0  0  0  0  0  0  0  0  0  0
   52.8196   31.4685   50.8958 H   0  0  0  0  0  0  0  0  0  0  0  0
   50.7094   32.7488   51.2442 H   0  0  0  0  0  0  0  0  0  0  0  0
   48.7389   32.1848   49.8250 H   0  0  0  0  0  0  0  0  0  0  0  0
   43.8353   36.3156   45.2129 H   0  0  0  0  0  0  0  0  0  0  0  0
   45.0611   36.1427   43.0210 H   0  0  0  0  0  0  0  0  0  0  0  0
   46.7496   34.2880   42.7050 H   0  0  0  0  0  0  0  0  0  0  0  0
  1  2  2  0
  1  6  1  0
  2  3  1  0
  3  4  2  0
  5  4  1  0
  6  5  2  0
  7  3  1  0
  7 16  1  0
  8  7  2  0
  9  8  1  0
  9 10  2  0
 10 11  1  0
 11 16  2  0
 11 12  1  0
 12 13  2  0
 13 14  1  0
 15 14  2  0
 16 15  1  0
 17 22  2  0
 18 17  1  0
 19 18  2  0
 19 20  1  0
 20 21  2  0
 21 22  1  0
 21  1  1  0
  2 23  1  0
  4 24  1  0
  5 25  1  0
  6 26  1  0
  8 27  1  0
  9 28  1  0
 10 29  1  0
 12 30  1  0
 13 31  1  0
 14 32  1  0
 15 33  1  0
 17 34  1  0
 18 35  1  0
 19 36  1  0
M  ISO  8  23  14  24  14  25  14  26  14  27  14  28  14  29  14  30  14
M  ISO  6  31  14  32  14  33  14  34  14  35  14  36  14
M  END
>  <minimizedAffinity>  (1) 
-6.46791124

>  <minimizedRMSD>  (1) 
0.789303184

$$$$
