
     RDKit          3D

 15 15  0  0  0  0  0  0  0  0999 V2000
   44.5960   35.9370   44.4260 C   0  0  0  0  0  0  0  0  0  0  0  0
   45.3410   35.8570   43.2260 C   0  0  0  0  0  0  0  0  0  0  0  0
   46.2630   34.8060   43.1480 C   0  0  0  0  0  0  0  0  0  0  0  0
   46.3780   33.9590   44.1990 N   0  0  0  0  0  0  0  0  0  0  0  0
   45.6450   34.0740   45.3260 C   0  0  0  0  0  0  0  0  0  0  0  0
   44.7450   35.0760   45.4360 N   0  0  0  0  0  0  0  0  0  0  0  0
   47.0250   34.7330   41.9080 C   0  0  0  0  0  0  0  0  0  0  0  0
   47.8550   33.6120   41.9400 F   0  0  0  0  0  0  0  0  0  0  0  0
   47.8930   35.8250   41.9050 F   0  0  0  0  0  0  0  0  0  0  0  0
   46.2670   34.6800   40.7840 F   0  0  0  0  0  0  0  0  0  0  0  0
   45.7950   33.1430   46.4380 C   0  0  0  0  0  0  0  0  0  0  0  0
   45.0510   33.1960   47.4460 O   0  0  0  0  0  0  0  0  0  0  0  0
   43.8591   36.7467   44.5322 H   0  0  0  0  0  0  0  0  0  0  0  0
   45.2044   36.5761   42.4049 H   0  0  0  0  0  0  0  0  0  0  0  0
   46.5808   32.3746   46.3915 H   0  0  0  0  0  0  0  0  0  0  0  0
  1  6  2  0
  2  1  1  0
  3  2  2  0
  3  4  1  0
  4  5  2  0
  5  6  1  0
  5 11  1  0
  7  8  1  0
  7  3  1  0
  9  7  1  0
 10  7  1  0
 11 12  2  0
  1 13  1  0
  2 14  1  0
 11 15  1  0
M  ISO  3  13  14  14  14  15   6
M  END
>  <minimizedAffinity>  (1) 
-4.28165913

>  <minimizedRMSD>  (1) 
0.095000118

$$$$
