
     RDKit          3D

 29 31  0  0  0  0  0  0  0  0999 V2000
   46.0230   32.7440   47.0520 C   0  0  0  0  0  0  0  0  0  0  0  0
   47.2750   32.2860   47.4310 C   0  0  0  0  0  0  0  0  0  0  0  0
   47.4520   31.4890   48.5410 C   0  0  0  0  0  0  0  0  0  0  0  0
   46.3740   31.1290   49.3070 C   0  0  0  0  0  0  0  0  0  0  0  0
   45.1080   31.5690   48.9570 C   0  0  0  0  0  0  0  0  0  0  0  0
   44.9600   32.3700   47.8340 C   0  0  0  0  0  0  0  0  0  0  0  0
   44.7260   35.3640   44.8440 C   0  0  0  0  0  0  0  0  0  0  0  0
   45.4800   35.2310   43.6810 C   0  0  0  0  0  0  0  0  0  0  0  0
   46.4460   34.2230   43.6630 C   0  0  0  0  0  0  0  0  0  0  0  0
   46.6290   33.4140   44.7510 N   0  0  0  0  0  0  0  0  0  0  0  0
   45.8610   33.5860   45.8710 C   0  0  0  0  0  0  0  0  0  0  0  0
   44.9140   34.5650   45.9040 N   0  0  0  0  0  0  0  0  0  0  0  0
   48.8180   31.0720   48.8360 C   0  0  0  0  0  0  0  0  0  0  0  0
   49.7510   31.8310   49.5070 C   0  0  0  0  0  0  0  0  0  0  0  0
   51.0320   31.3880   49.7620 C   0  0  0  0  0  0  0  0  0  0  0  0
   51.4130   30.1350   49.3320 C   0  0  0  0  0  0  0  0  0  0  0  0
   50.4800   29.3720   48.6600 C   0  0  0  0  0  0  0  0  0  0  0  0
   49.2300   29.8560   48.4360 N   0  0  0  0  0  0  0  0  0  0  0  0
   48.1518   32.5666   46.8289 H   0  0  0  0  0  0  0  0  0  0  0  0
   46.5133   30.4943   50.1946 H   0  0  0  0  0  0  0  0  0  0  0  0
   44.2327   31.2874   49.5608 H   0  0  0  0  0  0  0  0  0  0  0  0
   43.9530   32.7180   47.5606 H   0  0  0  0  0  0  0  0  0  0  0  0
   43.9545   36.1465   44.8945 H   0  0  0  0  0  0  0  0  0  0  0  0
   45.3217   35.8906   42.8151 H   0  0  0  0  0  0  0  0  0  0  0  0
   47.0656   34.0780   42.7658 H   0  0  0  0  0  0  0  0  0  0  0  0
   49.4620   32.8338   49.8546 H   0  0  0  0  0  0  0  0  0  0  0  0
   51.7433   32.0289   50.3037 H   0  0  0  0  0  0  0  0  0  0  0  0
   52.4284   29.7554   49.5186 H   0  0  0  0  0  0  0  0  0  0  0  0
   50.7494   28.3668   48.3038 H   0  0  0  0  0  0  0  0  0  0  0  0
  1  2  2  0
  1  6  1  0
  2  3  1  0
  3 13  1  0
  3  4  2  0
  5  4  1  0
  6  5  2  0
  7 12  2  0
  8  7  1  0
  9  8  2  0
  9 10  1  0
 10 11  2  0
 11 12  1  0
 11  1  1  0
 13 14  2  0
 14 15  1  0
 16 15  2  0
 17 16  1  0
 18 17  2  0
 18 13  1  0
  2 19  1  0
  4 20  1  0
  5 21  1  0
  6 22  1  0
  7 23  1  0
  8 24  1  0
  9 25  1  0
 14 26  1  0
 15 27  1  0
 16 28  1  0
 17 29  1  0
M  ISO  8  19  14  20  14  21  14  22  14  23  14  24  14  25  14  26  14
M  ISO  3  27  14  28  14  29  14
M  END
>  <minimizedAffinity>  (1) 
-5.73527384

>  <minimizedRMSD>  (1) 
0.733460546

$$$$
