
     RDKit          3D

 33 35  0  0  0  0  0  0  0  0999 V2000
   45.9720   32.7850   46.9770 C   0  0  0  0  0  0  0  0  0  0  0  0
   47.1780   32.1540   47.1590 C   0  0  0  0  0  0  0  0  0  0  0  0
   47.4210   31.2990   48.2280 C   0  0  0  0  0  0  0  0  0  0  0  0
   46.4100   31.0660   49.1560 C   0  0  0  0  0  0  0  0  0  0  0  0
   45.1840   31.6870   48.9990 C   0  0  0  0  0  0  0  0  0  0  0  0
   45.0040   32.5230   47.9210 C   0  0  0  0  0  0  0  0  0  0  0  0
   44.5670   35.5200   45.0100 C   0  0  0  0  0  0  0  0  0  0  0  0
   45.2400   35.4240   43.7770 C   0  0  0  0  0  0  0  0  0  0  0  0
   46.1900   34.4000   43.6290 C   0  0  0  0  0  0  0  0  0  0  0  0
   46.4230   33.5440   44.6740 N   0  0  0  0  0  0  0  0  0  0  0  0
   45.7500   33.6730   45.8490 C   0  0  0  0  0  0  0  0  0  0  0  0
   44.8330   34.6590   46.0000 N   0  0  0  0  0  0  0  0  0  0  0  0
   48.7470   30.6680   48.3390 C   0  0  0  0  0  0  0  0  0  0  0  0
   49.2010   30.6340   49.8050 C   0  0  0  0  0  0  0  0  0  0  0  0
   50.4820   29.8120   49.6320 C   0  0  0  0  0  0  0  0  0  0  0  0
   49.9070   28.6220   48.8580 C   0  0  0  0  0  0  0  0  0  0  0  0
   48.7630   29.1990   48.0190 C   0  0  0  0  0  0  0  0  0  0  0  0
   47.9830   32.3319   46.4308 H   0  0  0  0  0  0  0  0  0  0  0  0
   46.5848   30.3928   50.0082 H   0  0  0  0  0  0  0  0  0  0  0  0
   44.3709   31.5163   49.7200 H   0  0  0  0  0  0  0  0  0  0  0  0
   44.0258   33.0127   47.8060 H   0  0  0  0  0  0  0  0  0  0  0  0
   43.8160   36.3094   45.1612 H   0  0  0  0  0  0  0  0  0  0  0  0
   45.0290   36.1269   42.9576 H   0  0  0  0  0  0  0  0  0  0  0  0
   46.7414   34.2861   42.6840 H   0  0  0  0  0  0  0  0  0  0  0  0
   49.3635   31.2604   47.6469 H   0  0  0  0  0  0  0  0  0  0  0  0
   49.4054   31.6408   50.1982 H   0  0  0  0  0  0  0  0  0  0  0  0
   48.4695   30.2304   50.5205 H   0  0  0  0  0  0  0  0  0  0  0  0
   51.2426   30.3529   49.0498 H   0  0  0  0  0  0  0  0  0  0  0  0
   51.0080   29.5578   50.5640 H   0  0  0  0  0  0  0  0  0  0  0  0
   50.6753   28.1779   48.2080 H   0  0  0  0  0  0  0  0  0  0  0  0
   49.5595   27.8247   49.5314 H   0  0  0  0  0  0  0  0  0  0  0  0
   47.8064   28.7325   48.2970 H   0  0  0  0  0  0  0  0  0  0  0  0
   48.9044   29.0122   46.9442 H   0  0  0  0  0  0  0  0  0  0  0  0
  1  2  2  0
  1  6  1  0
  2  3  1  0
  3 13  1  0
  3  4  2  0
  5  4  1  0
  6  5  2  0
  7 12  2  0
  8  7  1  0
  9  8  2  0
  9 10  1  0
 10 11  2  0
 11 12  1  0
 11  1  1  0
 13 14  1  0
 15 14  1  0
 16 15  1  0
 17 13  1  0
 17 16  1  0
  2 18  1  0
  4 19  1  0
  5 20  1  0
  6 21  1  0
  7 22  1  0
  8 23  1  0
  9 24  1  0
 13 25  1  0
 14 26  1  0
 14 27  1  0
 15 28  1  0
 15 29  1  0
 16 30  1  0
 16 31  1  0
 17 32  1  0
 17 33  1  0
M  ISO  8  18  14  19  14  20  14  21  14  22  14  23  14  24  14  25  13
M  ISO  8  26  13  27  13  28  13  29  13  30  13  31  13  32  13  33  13
M  END
>  <minimizedAffinity>  (1) 
-5.56215525

>  <minimizedRMSD>  (1) 
0.142938063

$$$$
