
     RDKit          3D

 27 29  0  0  0  0  0  0  0  0999 V2000
   45.9410   32.8110   47.0600 C   0  0  0  0  0  0  0  0  0  0  0  0
   47.2070   32.4050   47.4310 C   0  0  0  0  0  0  0  0  0  0  0  0
   47.4070   31.5880   48.5310 C   0  0  0  0  0  0  0  0  0  0  0  0
   46.3590   31.1500   49.2980 C   0  0  0  0  0  0  0  0  0  0  0  0
   45.1000   31.5420   48.9480 C   0  0  0  0  0  0  0  0  0  0  0  0
   44.8840   32.3630   47.8440 C   0  0  0  0  0  0  0  0  0  0  0  0
   44.5810   35.4920   44.9890 C   0  0  0  0  0  0  0  0  0  0  0  0
   45.2840   35.3550   43.7730 C   0  0  0  0  0  0  0  0  0  0  0  0
   46.2370   34.3280   43.6670 C   0  0  0  0  0  0  0  0  0  0  0  0
   46.4260   33.5240   44.7450 N   0  0  0  0  0  0  0  0  0  0  0  0
   45.7430   33.6710   45.8980 C   0  0  0  0  0  0  0  0  0  0  0  0
   44.8170   34.6610   46.0180 N   0  0  0  0  0  0  0  0  0  0  0  0
   48.7710   31.1950   48.8680 C   0  0  0  0  0  0  0  0  0  0  0  0
   49.3590   29.9660   48.6310 C   0  0  0  0  0  0  0  0  0  0  0  0
   50.6590   30.0020   49.0990 C   0  0  0  0  0  0  0  0  0  0  0  0
   50.8370   31.2510   49.6120 N   0  0  0  0  0  0  0  0  0  0  0  0
   49.7210   31.9250   49.4640 N   0  0  0  0  0  0  0  0  0  0  0  0
   48.0741   32.7370   46.8412 H   0  0  0  0  0  0  0  0  0  0  0  0
   46.5280   30.5014   50.1702 H   0  0  0  0  0  0  0  0  0  0  0  0
   44.2417   31.2042   49.5474 H   0  0  0  0  0  0  0  0  0  0  0  0
   43.8572   32.6628   47.5874 H   0  0  0  0  0  0  0  0  0  0  0  0
   43.8305   36.2891   45.0957 H   0  0  0  0  0  0  0  0  0  0  0  0
   45.0908   36.0347   42.9300 H   0  0  0  0  0  0  0  0  0  0  0  0
   46.8115   34.1800   42.7407 H   0  0  0  0  0  0  0  0  0  0  0  0
   48.8733   29.1039   48.1504 H   0  0  0  0  0  0  0  0  0  0  0  0
   51.3985   29.1884   49.0642 H   0  0  0  0  0  0  0  0  0  0  0  0
   51.7020   31.6066   50.0435 H   0  0  0  0  0  0  0  0  0  0  0  0
  1  2  2  0
  1  6  1  0
  2  3  1  0
  3 13  1  0
  3  4  2  0
  5  4  1  0
  6  5  2  0
  7 12  2  0
  8  7  1  0
  9  8  2  0
  9 10  1  0
 10 11  2  0
 11 12  1  0
 11  1  1  0
 13 17  2  0
 14 13  1  0
 14 15  2  0
 15 16  1  0
 17 16  1  0
  2 18  1  0
  4 19  1  0
  5 20  1  0
  6 21  1  0
  7 22  1  0
  8 23  1  0
  9 24  1  0
 14 25  1  0
 15 26  1  0
 16 27  1  0
M  ISO  8  18  14  19  14  20  14  21  14  22  14  23  14  24  14  25  14
M  ISO  2  26  14  27   9
M  END
>  <minimizedAffinity>  (1) 
-5.52689743

>  <minimizedRMSD>  (1) 
0.73659569

$$$$
