
     RDKit          3D

 28 29  0  0  0  0  0  0  0  0999 V2000
   46.0280   32.7950   46.9370 C   0  0  0  0  0  0  0  0  0  0  0  0
   47.2110   32.1200   47.0550 C   0  0  0  0  0  0  0  0  0  0  0  0
   47.4610   31.2590   48.1130 C   0  0  0  0  0  0  0  0  0  0  0  0
   46.5110   31.0570   49.0920 C   0  0  0  0  0  0  0  0  0  0  0  0
   45.3190   31.7160   49.0070 C   0  0  0  0  0  0  0  0  0  0  0  0
   45.0990   32.5680   47.9400 C   0  0  0  0  0  0  0  0  0  0  0  0
   44.5540   35.5260   45.0100 C   0  0  0  0  0  0  0  0  0  0  0  0
   45.2100   35.4350   43.7640 C   0  0  0  0  0  0  0  0  0  0  0  0
   46.1620   34.4280   43.5940 C   0  0  0  0  0  0  0  0  0  0  0  0
   46.4110   33.5860   44.6340 N   0  0  0  0  0  0  0  0  0  0  0  0
   45.7560   33.7010   45.8320 C   0  0  0  0  0  0  0  0  0  0  0  0
   44.8400   34.6700   45.9950 N   0  0  0  0  0  0  0  0  0  0  0  0
   48.6860   30.5500   48.2460 N   0  0  0  0  0  0  0  0  0  0  0  0
   49.9510   30.8200   49.3670 S   0  0  0  0  0  0  0  0  0  0  0  0
   49.6300   30.0770   50.6410 O   0  0  0  0  0  0  0  0  0  0  0  0
   50.1390   32.2910   49.6460 O   0  0  0  0  0  0  0  0  0  0  0  0
   51.3850   30.2110   48.7860 O   0  0  0  0  0  0  0  0  0  0  0  0
   47.9869   32.2640   46.2887 H   0  0  0  0  0  0  0  0  0  0  0  0
   46.7114   30.3737   49.9304 H   0  0  0  0  0  0  0  0  0  0  0  0
   44.5451   31.5718   49.7753 H   0  0  0  0  0  0  0  0  0  0  0  0
   44.1345   33.0939   47.8845 H   0  0  0  0  0  0  0  0  0  0  0  0
   43.7994   36.3098   45.1719 H   0  0  0  0  0  0  0  0  0  0  0  0
   44.9780   36.1374   42.9499 H   0  0  0  0  0  0  0  0  0  0  0  0
   46.6991   34.3175   42.6404 H   0  0  0  0  0  0  0  0  0  0  0  0
   48.8308   29.7750   47.5832 H   0  0  0  0  0  0  0  0  0  0  0  0
   49.8723   30.6378   51.4201 H   0  0  0  0  0  0  0  0  0  0  0  0
   50.1582   32.4415   50.6243 H   0  0  0  0  0  0  0  0  0  0  0  0
   51.9698   29.9626   49.5452 H   0  0  0  0  0  0  0  0  0  0  0  0
  1  2  2  0
  1  6  1  0
  2  3  1  0
  3 13  1  0
  3  4  2  0
  5  4  1  0
  6  5  2  0
  7 12  2  0
  8  7  1  0
  9  8  2  0
  9 10  1  0
 10 11  2  0
 11 12  1  0
 11  1  1  0
 13 14  1  0
 14 16  1  0
 14 15  1  0
 17 14  1  0
  2 18  1  0
  4 19  1  0
  5 20  1  0
  6 21  1  0
  7 22  1  0
  8 23  1  0
  9 24  1  0
 13 25  1  0
 15 26  1  0
 16 27  1  0
 17 28  1  0
M  ISO  8  18  14  19  14  20  14  21  14  22  14  23  14  24  14  26   3
M  ISO  2  27   3  28   3
M  END
>  <minimizedAffinity>  (1) 
-5.32608891

>  <minimizedRMSD>  (1) 
0.401418269

$$$$
