
     RDKit          3D

 24 25  0  0  0  0  0  0  0  0999 V2000
   45.9640   32.7230   46.9440 C   0  0  0  0  0  0  0  0  0  0  0  0
   47.0920   31.9180   46.9740 C   0  0  0  0  0  0  0  0  0  0  0  0
   47.3060   31.0400   48.0230 C   0  0  0  0  0  0  0  0  0  0  0  0
   46.4170   30.9340   49.0630 C   0  0  0  0  0  0  0  0  0  0  0  0
   45.3030   31.7190   49.0470 C   0  0  0  0  0  0  0  0  0  0  0  0
   45.0790   32.6040   47.9990 C   0  0  0  0  0  0  0  0  0  0  0  0
   44.5840   35.5100   45.0390 C   0  0  0  0  0  0  0  0  0  0  0  0
   45.2520   35.4420   43.8070 C   0  0  0  0  0  0  0  0  0  0  0  0
   46.1950   34.4140   43.6320 C   0  0  0  0  0  0  0  0  0  0  0  0
   46.4120   33.5480   44.6510 N   0  0  0  0  0  0  0  0  0  0  0  0
   45.7410   33.6510   45.8340 C   0  0  0  0  0  0  0  0  0  0  0  0
   44.8230   34.6370   46.0270 N   0  0  0  0  0  0  0  0  0  0  0  0
   49.5520   30.6350   48.8310 C   0  0  0  0  0  0  0  0  0  0  0  0
   49.2020   31.5700   49.6080 O   0  0  0  0  0  0  0  0  0  0  0  0
   48.5190   30.2810   47.9000 N   0  0  0  0  0  0  0  0  0  0  0  0
   47.8248   31.9773   46.1558 H   0  0  0  0  0  0  0  0  0  0  0  0
   46.5992   30.2320   49.8901 H   0  0  0  0  0  0  0  0  0  0  0  0
   44.5758   31.6517   49.8696 H   0  0  0  0  0  0  0  0  0  0  0  0
   44.1724   33.2269   48.0095 H   0  0  0  0  0  0  0  0  0  0  0  0
   43.8407   36.3050   45.1988 H   0  0  0  0  0  0  0  0  0  0  0  0
   45.0452   36.1674   43.0063 H   0  0  0  0  0  0  0  0  0  0  0  0
   46.7463   34.3147   42.6853 H   0  0  0  0  0  0  0  0  0  0  0  0
   50.5377   30.1480   48.8652 H   0  0  0  0  0  0  0  0  0  0  0  0
   48.6385   29.5383   47.1964 H   0  0  0  0  0  0  0  0  0  0  0  0
  1  2  2  0
  1  6  1  0
  2  3  1  0
  3  4  2  0
  5  4  1  0
  6  5  2  0
  7 12  2  0
  8  7  1  0
  9  8  2  0
  9 10  1  0
 10 11  2  0
 11 12  1  0
 11  1  1  0
 13 14  2  0
 15  3  1  0
 15 13  1  0
  2 16  1  0
  4 17  1  0
  5 18  1  0
  6 19  1  0
  7 20  1  0
  8 21  1  0
  9 22  1  0
 13 23  1  0
 15 24  1  0
M  ISO  8  16  14  17  14  18  14  19  14  20  14  21  14  22  14  23   6
M  END
>  <minimizedAffinity>  (1) 
-4.97438526

>  <minimizedRMSD>  (1) 
0.295746654

$$$$
