
     RDKit          3D

 31 33  0  0  0  0  0  0  0  0999 V2000
   46.0810   32.7010   46.9530 C   0  0  0  0  0  0  0  0  0  0  0  0
   47.2130   31.9330   47.0820 C   0  0  0  0  0  0  0  0  0  0  0  0
   47.4100   31.1000   48.1670 C   0  0  0  0  0  0  0  0  0  0  0  0
   46.4560   31.0260   49.1600 C   0  0  0  0  0  0  0  0  0  0  0  0
   45.3290   31.7770   49.0520 C   0  0  0  0  0  0  0  0  0  0  0  0
   45.1580   32.6040   47.9500 C   0  0  0  0  0  0  0  0  0  0  0  0
   44.7340   35.3560   44.8380 C   0  0  0  0  0  0  0  0  0  0  0  0
   45.4640   35.2710   43.6640 C   0  0  0  0  0  0  0  0  0  0  0  0
   46.4400   34.2820   43.5980 C   0  0  0  0  0  0  0  0  0  0  0  0
   46.6620   33.4290   44.6560 N   0  0  0  0  0  0  0  0  0  0  0  0
   45.8930   33.5800   45.7870 C   0  0  0  0  0  0  0  0  0  0  0  0
   44.9240   34.5400   45.8940 N   0  0  0  0  0  0  0  0  0  0  0  0
   48.9130   30.1320   48.2570 S   0  0  0  0  0  0  0  0  0  0  0  0
   49.9770   28.2950   50.3860 F   0  0  0  0  0  0  0  0  0  0  0  0
   50.2880   29.6060   50.5250 C   0  0  0  0  0  0  0  0  0  0  0  0
   49.9030   30.6130   49.6660 C   0  0  0  0  0  0  0  0  0  0  0  0
   50.2410   31.9310   49.8460 C   0  0  0  0  0  0  0  0  0  0  0  0
   51.0080   32.2780   50.9430 C   0  0  0  0  0  0  0  0  0  0  0  0
   51.4210   31.2950   51.8400 C   0  0  0  0  0  0  0  0  0  0  0  0
   51.0480   29.9750   51.6070 C   0  0  0  0  0  0  0  0  0  0  0  0
   47.9844   31.9826   46.2994 H   0  0  0  0  0  0  0  0  0  0  0  0
   46.6056   30.3674   50.0283 H   0  0  0  0  0  0  0  0  0  0  0  0
   44.5562   31.7301   49.8334 H   0  0  0  0  0  0  0  0  0  0  0  0
   44.2397   33.2054   47.8791 H   0  0  0  0  0  0  0  0  0  0  0  0
   43.9572   36.1313   44.9127 H   0  0  0  0  0  0  0  0  0  0  0  0
   45.2803   35.9546   42.8220 H   0  0  0  0  0  0  0  0  0  0  0  0
   47.0449   34.1796   42.6850 H   0  0  0  0  0  0  0  0  0  0  0  0
   49.9078   32.6973   49.1306 H   0  0  0  0  0  0  0  0  0  0  0  0
   51.2916   33.3281   51.1072 H   0  0  0  0  0  0  0  0  0  0  0  0
   52.0311   31.5579   52.7167 H   0  0  0  0  0  0  0  0  0  0  0  0
   51.3739   29.1991   52.3154 H   0  0  0  0  0  0  0  0  0  0  0  0
  1  2  2  0
  1  6  1  0
  2  3  1  0
  3 13  1  0
  3  4  2  0
  5  4  1  0
  6  5  2  0
  7 12  2  0
  8  7  1  0
  9  8  2  0
  9 10  1  0
 10 11  2  0
 11 12  1  0
 11  1  1  0
 13 16  1  0
 14 15  1  0
 15 20  2  0
 16 17  2  0
 16 15  1  0
 17 18  1  0
 18 19  2  0
 20 19  1  0
  2 21  1  0
  4 22  1  0
  5 23  1  0
  6 24  1  0
  7 25  1  0
  8 26  1  0
  9 27  1  0
 17 28  1  0
 18 29  1  0
 19 30  1  0
 20 31  1  0
M  ISO  8  21  14  22  14  23  14  24  14  25  14  26  14  27  14  28  14
M  ISO  3  29  14  30  14  31  14
M  END
>  <minimizedAffinity>  (1) 
-6.08684587

>  <minimizedRMSD>  (1) 
1.60277927

$$$$
