
     RDKit          3D

 31 33  0  0  0  0  0  0  0  0999 V2000
   46.2850   32.6330   47.0870 C   0  0  0  0  0  0  0  0  0  0  0  0
   47.4930   32.0250   47.3560 C   0  0  0  0  0  0  0  0  0  0  0  0
   47.6840   31.2630   48.4900 C   0  0  0  0  0  0  0  0  0  0  0  0
   46.6540   31.0930   49.3910 C   0  0  0  0  0  0  0  0  0  0  0  0
   45.4470   31.6880   49.1420 C   0  0  0  0  0  0  0  0  0  0  0  0
   45.2760   32.4540   47.9890 C   0  0  0  0  0  0  0  0  0  0  0  0
   44.9130   35.1190   44.7870 C   0  0  0  0  0  0  0  0  0  0  0  0
   45.6870   35.0000   43.6430 C   0  0  0  0  0  0  0  0  0  0  0  0
   46.6980   34.0500   43.6600 C   0  0  0  0  0  0  0  0  0  0  0  0
   46.9160   33.2640   44.7700 N   0  0  0  0  0  0  0  0  0  0  0  0
   46.1030   33.4430   45.8670 C   0  0  0  0  0  0  0  0  0  0  0  0
   45.0940   34.3700   45.8930 N   0  0  0  0  0  0  0  0  0  0  0  0
   49.2690   30.5110   48.7690 S   0  0  0  0  0  0  0  0  0  0  0  0
   50.3060   29.2660   51.5370 Cl  0  0  0  0  0  0  0  0  0  0  0  0
   50.6570   30.9330   51.0990 C   0  0  0  0  0  0  0  0  0  0  0  0
   50.2270   31.4990   49.9170 C   0  0  0  0  0  0  0  0  0  0  0  0
   50.5180   32.8160   49.5960 C   0  0  0  0  0  0  0  0  0  0  0  0
   51.2550   33.5760   50.4790 C   0  0  0  0  0  0  0  0  0  0  0  0
   51.6920   33.0260   51.6610 C   0  0  0  0  0  0  0  0  0  0  0  0
   51.3920   31.7190   51.9590 C   0  0  0  0  0  0  0  0  0  0  0  0
   48.3257   32.1508   46.6483 H   0  0  0  0  0  0  0  0  0  0  0  0
   46.8006   30.4874   50.2975 H   0  0  0  0  0  0  0  0  0  0  0  0
   44.6139   31.5625   49.8493 H   0  0  0  0  0  0  0  0  0  0  0  0
   44.3009   32.9271   47.8012 H   0  0  0  0  0  0  0  0  0  0  0  0
   44.1060   35.8665   44.7925 H   0  0  0  0  0  0  0  0  0  0  0  0
   45.5074   35.6313   42.7603 H   0  0  0  0  0  0  0  0  0  0  0  0
   47.3357   33.9224   42.7728 H   0  0  0  0  0  0  0  0  0  0  0  0
   50.1652   33.2491   48.6484 H   0  0  0  0  0  0  0  0  0  0  0  0
   51.4935   34.6224   50.2380 H   0  0  0  0  0  0  0  0  0  0  0  0
   52.2805   33.6312   52.3663 H   0  0  0  0  0  0  0  0  0  0  0  0
   51.7473   31.2896   52.9074 H   0  0  0  0  0  0  0  0  0  0  0  0
  1  2  2  0
  1  6  1  0
  2  3  1  0
  3 13  1  0
  3  4  2  0
  5  4  1  0
  6  5  2  0
  7 12  2  0
  8  9  2  0
  8  7  1  0
  9 10  1  0
 10 11  2  0
 11 12  1  0
 11  1  1  0
 13 16  1  0
 15 14  1  0
 15 20  2  0
 16 15  1  0
 17 16  2  0
 17 18  1  0
 18 19  2  0
 19 20  1  0
  2 21  1  0
  4 22  1  0
  5 23  1  0
  6 24  1  0
  7 25  1  0
  8 26  1  0
  9 27  1  0
 17 28  1  0
 18 29  1  0
 19 30  1  0
 20 31  1  0
M  ISO  8  21  14  22  14  23  14  24  14  25  14  26  14  27  14  28  14
M  ISO  3  29  14  30  14  31  14
M  END
>  <minimizedAffinity>  (1) 
-5.82776165

>  <minimizedRMSD>  (1) 
0.949596584

$$$$
