
     RDKit          3D

 27 29  0  0  0  0  0  0  0  0999 V2000
   45.9190   32.7610   46.9530 C   0  0  0  0  0  0  0  0  0  0  0  0
   47.0570   31.9580   46.9980 C   0  0  0  0  0  0  0  0  0  0  0  0
   47.2770   31.0860   48.0510 C   0  0  0  0  0  0  0  0  0  0  0  0
   46.3600   30.9980   49.0850 C   0  0  0  0  0  0  0  0  0  0  0  0
   45.2380   31.7820   49.0530 C   0  0  0  0  0  0  0  0  0  0  0  0
   45.0460   32.6390   47.9930 C   0  0  0  0  0  0  0  0  0  0  0  0
   44.5730   35.5340   45.0100 C   0  0  0  0  0  0  0  0  0  0  0  0
   45.2470   35.4450   43.7820 C   0  0  0  0  0  0  0  0  0  0  0  0
   46.1790   34.4170   43.6190 C   0  0  0  0  0  0  0  0  0  0  0  0
   46.3900   33.5540   44.6490 N   0  0  0  0  0  0  0  0  0  0  0  0
   45.7140   33.6720   45.8290 C   0  0  0  0  0  0  0  0  0  0  0  0
   44.8070   34.6640   46.0050 N   0  0  0  0  0  0  0  0  0  0  0  0
   48.7480   30.0900   48.0480 S   0  0  0  0  0  0  0  0  0  0  0  0
   49.6910   30.4010   49.5590 C   0  0  0  0  0  0  0  0  0  0  0  0
   50.1320   31.7330   49.7200 C   0  0  0  0  0  0  0  0  0  0  0  0
   51.0440   31.6830   51.3440 S   0  0  0  0  0  0  0  0  0  0  0  0
   50.6450   29.8300   51.4950 C   0  0  0  0  0  0  0  0  0  0  0  0
   50.0570   29.6110   50.5630 N   0  0  0  0  0  0  0  0  0  0  0  0
   47.7933   32.0178   46.1830 H   0  0  0  0  0  0  0  0  0  0  0  0
   46.5311   30.3059   49.9227 H   0  0  0  0  0  0  0  0  0  0  0  0
   44.4982   31.7277   49.8653 H   0  0  0  0  0  0  0  0  0  0  0  0
   44.1379   33.2597   47.9846 H   0  0  0  0  0  0  0  0  0  0  0  0
   43.8353   36.3360   45.1606 H   0  0  0  0  0  0  0  0  0  0  0  0
   45.0475   36.1627   42.9727 H   0  0  0  0  0  0  0  0  0  0  0  0
   46.7323   34.3075   42.6746 H   0  0  0  0  0  0  0  0  0  0  0  0
   49.9752   32.5911   49.0498 H   0  0  0  0  0  0  0  0  0  0  0  0
   50.9236   29.1372   52.3027 H   0  0  0  0  0  0  0  0  0  0  0  0
  1  2  2  0
  1  6  1  0
  2  3  1  0
  3  4  2  0
  5  4  1  0
  6  5  2  0
  7 12  2  0
  8  7  1  0
  9  8  2  0
  9 10  1  0
 10 11  2  0
 11 12  1  0
 11  1  1  0
 13  3  1  0
 13 14  1  0
 14 15  2  0
 14 18  1  0
 15 16  1  0
 16 17  1  0
 18 17  2  0
  2 19  1  0
  4 20  1  0
  5 21  1  0
  6 22  1  0
  7 23  1  0
  8 24  1  0
  9 25  1  0
 15 26  1  0
 17 27  1  0
M  ISO  8  19  14  20  14  21  14  22  14  23  14  24  14  25  14  26  14
M  ISO  1  27  14
M  END
>  <minimizedAffinity>  (1) 
-5.61604261

>  <minimizedRMSD>  (1) 
1.59738159

$$$$
