
     RDKit          3D

 27 29  0  0  0  0  0  0  0  0999 V2000
   45.9270   32.7830   47.0930 C   0  0  0  0  0  0  0  0  0  0  0  0
   47.1950   32.5180   47.5490 C   0  0  0  0  0  0  0  0  0  0  0  0
   47.4110   31.7000   48.6430 C   0  0  0  0  0  0  0  0  0  0  0  0
   46.3510   31.1250   49.3120 C   0  0  0  0  0  0  0  0  0  0  0  0
   45.0900   31.3780   48.8710 C   0  0  0  0  0  0  0  0  0  0  0  0
   44.8970   32.1980   47.7750 C   0  0  0  0  0  0  0  0  0  0  0  0
   44.5700   35.4820   45.0290 C   0  0  0  0  0  0  0  0  0  0  0  0
   45.2340   35.3480   43.8210 C   0  0  0  0  0  0  0  0  0  0  0  0
   46.1630   34.3220   43.6990 C   0  0  0  0  0  0  0  0  0  0  0  0
   46.4060   33.4720   44.7560 N   0  0  0  0  0  0  0  0  0  0  0  0
   45.7150   33.6560   45.9270 C   0  0  0  0  0  0  0  0  0  0  0  0
   44.8080   34.6530   46.0550 N   0  0  0  0  0  0  0  0  0  0  0  0
   49.1000   31.4110   49.1680 S   0  0  0  0  0  0  0  0  0  0  0  0
   49.3640   29.6430   49.1270 C   0  0  0  0  0  0  0  0  0  0  0  0
   50.1660   28.9820   49.9830 N   0  0  0  0  0  0  0  0  0  0  0  0
   50.1330   27.6600   49.6660 C   0  0  0  0  0  0  0  0  0  0  0  0
   49.2960   27.5150   48.6000 N   0  0  0  0  0  0  0  0  0  0  0  0
   48.8360   28.7260   48.2830 N   0  0  0  0  0  0  0  0  0  0  0  0
   48.0571   32.9659   47.0331 H   0  0  0  0  0  0  0  0  0  0  0  0
   46.5220   30.4758   50.1834 H   0  0  0  0  0  0  0  0  0  0  0  0
   44.2259   30.9315   49.3848 H   0  0  0  0  0  0  0  0  0  0  0  0
   43.8679   32.3883   47.4364 H   0  0  0  0  0  0  0  0  0  0  0  0
   43.8303   36.2873   45.1492 H   0  0  0  0  0  0  0  0  0  0  0  0
   45.0322   36.0326   42.9840 H   0  0  0  0  0  0  0  0  0  0  0  0
   46.7078   34.1875   42.7529 H   0  0  0  0  0  0  0  0  0  0  0  0
   50.6816   26.8548   50.1766 H   0  0  0  0  0  0  0  0  0  0  0  0
   49.0615   26.6313   48.1258 H   0  0  0  0  0  0  0  0  0  0  0  0
  1  2  2  0
  1  6  1  0
  2  3  1  0
  3 13  1  0
  3  4  2  0
  5  4  1  0
  6  5  2  0
  7 12  2  0
  8  7  1  0
  9  8  2  0
  9 10  1  0
 10 11  2  0
 11 12  1  0
 11  1  1  0
 14 13  1  0
 14 15  1  0
 16 15  2  0
 17 16  1  0
 18 17  1  0
 18 14  2  0
  2 19  1  0
  4 20  1  0
  5 21  1  0
  6 22  1  0
  7 23  1  0
  8 24  1  0
  9 25  1  0
 16 26  1  0
 17 27  1  0
M  ISO  8  19  14  20  14  21  14  22  14  23  14  24  14  25  14  26  14
M  ISO  1  27   9
M  END
>  <minimizedAffinity>  (1) 
-5.26579666

>  <minimizedRMSD>  (1) 
0.78343457

$$$$
