
     RDKit          3D

 42 46  0  0  0  0  0  0  0  0999 V2000
   49.7840   30.2220   49.4200 C   0  0  0  0  0  0  0  0  0  0  0  0
   50.0110   31.4040   50.0480 N   0  0  0  0  0  0  0  0  0  0  0  0
   50.6720   31.5060   51.2100 C   0  0  0  0  0  0  0  0  0  0  0  0
   51.1280   30.3720   51.7710 N   0  0  0  0  0  0  0  0  0  0  0  0
   50.9470   29.1660   51.2160 C   0  0  0  0  0  0  0  0  0  0  0  0
   51.3930   27.9900   51.8070 C   0  0  0  0  0  0  0  0  0  0  0  0
   51.1690   26.7690   51.2190 C   0  0  0  0  0  0  0  0  0  0  0  0
   50.4860   26.6660   50.0090 C   0  0  0  0  0  0  0  0  0  0  0  0
   50.0500   27.8540   49.4350 C   0  0  0  0  0  0  0  0  0  0  0  0
   50.2610   29.0780   50.0110 C   0  0  0  0  0  0  0  0  0  0  0  0
   49.4030   27.5130   48.1820 C   0  0  0  0  0  0  0  0  0  0  0  0
   48.0620   27.2860   47.8110 C   0  0  0  0  0  0  0  0  0  0  0  0
   47.9240   27.0970   46.4560 C   0  0  0  0  0  0  0  0  0  0  0  0
   49.1800   27.2110   46.0030 N   0  0  0  0  0  0  0  0  0  0  0  0
   50.0190   27.4470   46.9870 N   0  0  0  0  0  0  0  0  0  0  0  0
   48.8590   30.0560   47.9250 S   0  0  0  0  0  0  0  0  0  0  0  0
   46.0350   32.7270   46.9110 C   0  0  0  0  0  0  0  0  0  0  0  0
   47.1590   31.9250   46.9200 C   0  0  0  0  0  0  0  0  0  0  0  0
   47.3990   31.0490   47.9660 C   0  0  0  0  0  0  0  0  0  0  0  0
   46.5080   30.9600   49.0260 C   0  0  0  0  0  0  0  0  0  0  0  0
   45.3960   31.7390   49.0380 C   0  0  0  0  0  0  0  0  0  0  0  0
   45.1760   32.5990   47.9980 C   0  0  0  0  0  0  0  0  0  0  0  0
   44.5620   35.5000   45.0520 C   0  0  0  0  0  0  0  0  0  0  0  0
   45.2140   35.4400   43.8030 C   0  0  0  0  0  0  0  0  0  0  0  0
   46.1650   34.4420   43.6030 C   0  0  0  0  0  0  0  0  0  0  0  0
   46.4390   33.5520   44.6130 N   0  0  0  0  0  0  0  0  0  0  0  0
   45.7730   33.6520   45.8160 C   0  0  0  0  0  0  0  0  0  0  0  0
   44.8490   34.6160   46.0240 N   0  0  0  0  0  0  0  0  0  0  0  0
   50.8356   32.4832   51.6878 H   0  0  0  0  0  0  0  0  0  0  0  0
   51.9352   28.0378   52.7629 H   0  0  0  0  0  0  0  0  0  0  0  0
   51.5353   25.8565   51.7121 H   0  0  0  0  0  0  0  0  0  0  0  0
   50.3010   25.6924   49.5317 H   0  0  0  0  0  0  0  0  0  0  0  0
   47.2236   27.2628   48.5227 H   0  0  0  0  0  0  0  0  0  0  0  0
   47.0058   26.9001   45.8832 H   0  0  0  0  0  0  0  0  0  0  0  0
   49.4523   27.1250   45.0134 H   0  0  0  0  0  0  0  0  0  0  0  0
   47.8733   31.9825   46.0855 H   0  0  0  0  0  0  0  0  0  0  0  0
   46.7018   30.2612   49.8532 H   0  0  0  0  0  0  0  0  0  0  0  0
   44.6821   31.6791   49.8727 H   0  0  0  0  0  0  0  0  0  0  0  0
   44.2708   33.2235   48.0220 H   0  0  0  0  0  0  0  0  0  0  0  0
   43.8084   36.2805   45.2337 H   0  0  0  0  0  0  0  0  0  0  0  0
   44.9778   36.1622   43.0077 H   0  0  0  0  0  0  0  0  0  0  0  0
   46.6938   34.3669   42.6414 H   0  0  0  0  0  0  0  0  0  0  0  0
  1 10  1  0
  1  2  2  0
  2  3  1  0
  3  4  2  0
  5  4  1  0
  5  6  2  0
  7  6  1  0
  8  7  2  0
  9  8  1  0
  9 10  2  0
 10  5  1  0
 11  9  1  0
 12 11  1  0
 13 12  2  0
 14 13  1  0
 14 15  1  0
 15 11  2  0
 16 19  1  0
 16  1  1  0
 17 18  2  0
 17 22  1  0
 18 19  1  0
 19 20  2  0
 20 21  1  0
 22 21  2  0
 23 28  2  0
 24 23  1  0
 25 24  2  0
 25 26  1  0
 26 27  2  0
 27 28  1  0
 27 17  1  0
  3 29  1  0
  6 30  1  0
  7 31  1  0
  8 32  1  0
 12 33  1  0
 13 34  1  0
 14 35  1  0
 18 36  1  0
 20 37  1  0
 21 38  1  0
 22 39  1  0
 23 40  1  0
 24 41  1  0
 25 42  1  0
M  ISO  8  29  14  30  14  31  14  32  14  33  14  34  14  35   9  36  14
M  ISO  6  37  14  38  14  39  14  40  14  41  14  42  14
M  END
>  <minimizedAffinity>  (1) 
-6.52639532

>  <minimizedRMSD>  (1) 
0.639272511

$$$$
