
     RDKit          3D

 45 49  0  0  0  0  0  0  0  0999 V2000
   49.7660   30.1680   49.4080 C   0  0  0  0  0  0  0  0  0  0  0  0
   49.9990   31.3270   50.0710 N   0  0  0  0  0  0  0  0  0  0  0  0
   50.6600   31.3910   51.2340 C   0  0  0  0  0  0  0  0  0  0  0  0
   51.1090   30.2240   51.7550 N   0  0  0  0  0  0  0  0  0  0  0  0
   50.9240   29.0410   51.1720 C   0  0  0  0  0  0  0  0  0  0  0  0
   51.3800   27.8380   51.7060 C   0  0  0  0  0  0  0  0  0  0  0  0
   51.1540   26.6440   51.0580 C   0  0  0  0  0  0  0  0  0  0  0  0
   50.4610   26.5880   49.8430 C   0  0  0  0  0  0  0  0  0  0  0  0
   50.0300   27.7950   49.3510 C   0  0  0  0  0  0  0  0  0  0  0  0
   50.2390   28.9990   49.9720 C   0  0  0  0  0  0  0  0  0  0  0  0
   49.3500   27.5760   48.1210 N   0  0  0  0  0  0  0  0  0  0  0  0
   47.9980   27.3690   48.0440 C   0  0  0  0  0  0  0  0  0  0  0  0
   47.3700   27.1320   46.8290 C   0  0  0  0  0  0  0  0  0  0  0  0
   48.1800   27.1150   45.6910 C   0  0  0  0  0  0  0  0  0  0  0  0
   47.7300   26.9110   44.5350 O   0  0  0  0  0  0  0  0  0  0  0  0
   49.5170   27.3220   45.7880 N   0  0  0  0  0  0  0  0  0  0  0  0
   50.1130   27.5520   46.9830 C   0  0  0  0  0  0  0  0  0  0  0  0
   51.3550   27.7410   47.0510 O   0  0  0  0  0  0  0  0  0  0  0  0
   48.8980   30.0660   47.8680 S   0  0  0  0  0  0  0  0  0  0  0  0
   46.0360   32.7220   46.8980 C   0  0  0  0  0  0  0  0  0  0  0  0
   47.1550   31.9290   46.9070 C   0  0  0  0  0  0  0  0  0  0  0  0
   47.4190   31.0520   47.9380 C   0  0  0  0  0  0  0  0  0  0  0  0
   46.5380   30.9530   49.0070 C   0  0  0  0  0  0  0  0  0  0  0  0
   45.4270   31.7270   49.0170 C   0  0  0  0  0  0  0  0  0  0  0  0
   45.1940   32.5920   47.9730 C   0  0  0  0  0  0  0  0  0  0  0  0
   44.5610   35.5070   45.0530 C   0  0  0  0  0  0  0  0  0  0  0  0
   45.2140   35.4520   43.7980 C   0  0  0  0  0  0  0  0  0  0  0  0
   46.1660   34.4500   43.5860 C   0  0  0  0  0  0  0  0  0  0  0  0
   46.4370   33.5640   44.5830 N   0  0  0  0  0  0  0  0  0  0  0  0
   45.7840   33.6510   45.7820 C   0  0  0  0  0  0  0  0  0  0  0  0
   44.8540   34.6200   46.0050 N   0  0  0  0  0  0  0  0  0  0  0  0
   50.8310   32.3503   51.7444 H   0  0  0  0  0  0  0  0  0  0  0  0
   51.9287   27.8417   52.6594 H   0  0  0  0  0  0  0  0  0  0  0  0
   51.5272   25.7114   51.5062 H   0  0  0  0  0  0  0  0  0  0  0  0
   50.2742   25.6399   49.3174 H   0  0  0  0  0  0  0  0  0  0  0  0
   47.3970   27.3911   48.9650 H   0  0  0  0  0  0  0  0  0  0  0  0
   46.2846   26.9653   46.7652 H   0  0  0  0  0  0  0  0  0  0  0  0
   50.0923   27.3039   44.9339 H   0  0  0  0  0  0  0  0  0  0  0  0
   47.8626   31.9944   46.0673 H   0  0  0  0  0  0  0  0  0  0  0  0
   46.7398   30.2559   49.8336 H   0  0  0  0  0  0  0  0  0  0  0  0
   44.7159   31.6646   49.8539 H   0  0  0  0  0  0  0  0  0  0  0  0
   44.2855   33.2115   48.0018 H   0  0  0  0  0  0  0  0  0  0  0  0
   43.8078   36.2856   45.2440 H   0  0  0  0  0  0  0  0  0  0  0  0
   44.9780   36.1804   43.0082 H   0  0  0  0  0  0  0  0  0  0  0  0
   46.6912   34.3785   42.6221 H   0  0  0  0  0  0  0  0  0  0  0  0
  1 10  1  0
  1  2  2  0
  2  3  1  0
  3  4  2  0
  5  6  2  0
  5  4  1  0
  7  6  1  0
  8  7  2  0
  9  8  1  0
  9 10  2  0
 10  5  1  0
 11  9  1  0
 12 11  1  0
 13 12  2  0
 14 16  1  0
 14 13  1  0
 15 14  2  0
 16 17  1  0
 17 18  2  0
 17 11  1  0
 19 22  1  0
 19  1  1  0
 20 21  2  0
 20 25  1  0
 21 22  1  0
 22 23  2  0
 23 24  1  0
 25 24  2  0
 26 31  2  0
 27 26  1  0
 28 27  2  0
 28 29  1  0
 29 30  2  0
 30 31  1  0
 30 20  1  0
  3 32  1  0
  6 33  1  0
  7 34  1  0
  8 35  1  0
 12 36  1  0
 13 37  1  0
 16 38  1  0
 21 39  1  0
 23 40  1  0
 24 41  1  0
 25 42  1  0
 26 43  1  0
 27 44  1  0
 28 45  1  0
M  ISO  8  32  14  33  14  34  14  35  14  36  14  37  14  38   9  39  14
M  ISO  6  40  14  41  14  42  14  43  14  44  14  45  14
M  END
>  <minimizedAffinity>  (1) 
-6.49572372

>  <minimizedRMSD>  (1) 
0.73465544

$$$$
