
     RDKit          3D

 42 46  0  0  0  0  0  0  0  0999 V2000
   49.7590   30.1870   49.4320 C   0  0  0  0  0  0  0  0  0  0  0  0
   50.0060   31.3500   50.0850 N   0  0  0  0  0  0  0  0  0  0  0  0
   50.6760   31.4160   51.2450 C   0  0  0  0  0  0  0  0  0  0  0  0
   51.1160   30.2570   51.7710 N   0  0  0  0  0  0  0  0  0  0  0  0
   50.9170   29.0720   51.1960 C   0  0  0  0  0  0  0  0  0  0  0  0
   51.3880   27.8750   51.7160 C   0  0  0  0  0  0  0  0  0  0  0  0
   51.1800   26.6780   51.0760 C   0  0  0  0  0  0  0  0  0  0  0  0
   50.4780   26.6160   49.8700 C   0  0  0  0  0  0  0  0  0  0  0  0
   50.0170   27.8150   49.3730 C   0  0  0  0  0  0  0  0  0  0  0  0
   50.2210   29.0150   49.9980 C   0  0  0  0  0  0  0  0  0  0  0  0
   49.2960   27.5160   48.1490 C   0  0  0  0  0  0  0  0  0  0  0  0
   49.6680   27.5220   46.7920 C   0  0  0  0  0  0  0  0  0  0  0  0
   48.6460   27.2860   45.9580 N   0  0  0  0  0  0  0  0  0  0  0  0
   47.6010   27.1250   46.7540 C   0  0  0  0  0  0  0  0  0  0  0  0
   47.9800   27.2590   48.0280 N   0  0  0  0  0  0  0  0  0  0  0  0
   48.9380   30.0970   47.8670 S   0  0  0  0  0  0  0  0  0  0  0  0
   46.0480   32.7240   46.8940 C   0  0  0  0  0  0  0  0  0  0  0  0
   47.1890   31.9380   46.8950 C   0  0  0  0  0  0  0  0  0  0  0  0
   47.4320   31.0620   47.9400 C   0  0  0  0  0  0  0  0  0  0  0  0
   46.5300   30.9500   49.0160 C   0  0  0  0  0  0  0  0  0  0  0  0
   45.4190   31.7180   49.0090 C   0  0  0  0  0  0  0  0  0  0  0  0
   45.1840   32.5830   47.9750 C   0  0  0  0  0  0  0  0  0  0  0  0
   44.5640   35.5020   45.0460 C   0  0  0  0  0  0  0  0  0  0  0  0
   45.1970   35.4560   43.8040 C   0  0  0  0  0  0  0  0  0  0  0  0
   46.1390   34.4620   43.6020 C   0  0  0  0  0  0  0  0  0  0  0  0
   46.4260   33.5660   44.5990 N   0  0  0  0  0  0  0  0  0  0  0  0
   45.7800   33.6550   45.7940 C   0  0  0  0  0  0  0  0  0  0  0  0
   44.8620   34.6170   46.0020 N   0  0  0  0  0  0  0  0  0  0  0  0
   50.8587   32.3779   51.7464 H   0  0  0  0  0  0  0  0  0  0  0  0
   51.9426   27.8851   52.6659 H   0  0  0  0  0  0  0  0  0  0  0  0
   51.5730   25.7519   51.5208 H   0  0  0  0  0  0  0  0  0  0  0  0
   50.3033   25.6641   49.3471 H   0  0  0  0  0  0  0  0  0  0  0  0
   50.6974   27.7028   46.4492 H   0  0  0  0  0  0  0  0  0  0  0  0
   48.6686   27.2402   44.9293 H   0  0  0  0  0  0  0  0  0  0  0  0
   46.5754   26.9129   46.4175 H   0  0  0  0  0  0  0  0  0  0  0  0
   47.9046   32.0100   46.0627 H   0  0  0  0  0  0  0  0  0  0  0  0
   46.7261   30.2525   49.8437 H   0  0  0  0  0  0  0  0  0  0  0  0
   44.6997   31.6478   49.8383 H   0  0  0  0  0  0  0  0  0  0  0  0
   44.2701   33.1947   47.9998 H   0  0  0  0  0  0  0  0  0  0  0  0
   43.8089   36.2776   45.2414 H   0  0  0  0  0  0  0  0  0  0  0  0
   44.9565   36.1828   43.0141 H   0  0  0  0  0  0  0  0  0  0  0  0
   46.6602   34.3907   42.6360 H   0  0  0  0  0  0  0  0  0  0  0  0
  1 10  1  0
  1  2  2  0
  2  3  1  0
  3  4  2  0
  5  6  2  0
  5  4  1  0
  7  6  1  0
  8  7  2  0
  9  8  1  0
  9 10  2  0
 10  5  1  0
 11  9  1  0
 12 11  2  0
 13 14  1  0
 13 12  1  0
 14 15  2  0
 15 11  1  0
 16 19  1  0
 16  1  1  0
 17 18  2  0
 17 22  1  0
 18 19  1  0
 19 20  2  0
 21 20  1  0
 22 21  2  0
 23 28  2  0
 24 23  1  0
 25 24  2  0
 25 26  1  0
 26 27  2  0
 27 28  1  0
 27 17  1  0
  3 29  1  0
  6 30  1  0
  7 31  1  0
  8 32  1  0
 12 33  1  0
 13 34  1  0
 14 35  1  0
 18 36  1  0
 20 37  1  0
 21 38  1  0
 22 39  1  0
 23 40  1  0
 24 41  1  0
 25 42  1  0
M  ISO  8  29  14  30  14  31  14  32  14  33  14  34   9  35  14  36  14
M  ISO  6  37  14  38  14  39  14  40  14  41  14  42  14
M  END
>  <minimizedAffinity>  (1) 
-6.45247078

>  <minimizedRMSD>  (1) 
0.668921173

$$$$
