
     RDKit          3D

 52 56  0  0  0  0  0  0  0  0999 V2000
   49.8270   30.2520   49.6310 C   0  0  0  0  0  0  0  0  0  0  0  0
   50.0230   31.5070   50.1570 N   0  0  0  0  0  0  0  0  0  0  0  0
   50.7520   31.7430   51.2400 C   0  0  0  0  0  0  0  0  0  0  0  0
   51.3220   30.6900   51.8410 N   0  0  0  0  0  0  0  0  0  0  0  0
   51.1800   29.4290   51.3930 C   0  0  0  0  0  0  0  0  0  0  0  0
   51.7830   28.3500   52.0250 C   0  0  0  0  0  0  0  0  0  0  0  0
   51.6210   27.0740   51.5370 C   0  0  0  0  0  0  0  0  0  0  0  0
   50.8580   26.8640   50.4170 C   0  0  0  0  0  0  0  0  0  0  0  0
   50.2440   27.9260   49.7630 C   0  0  0  0  0  0  0  0  0  0  0  0
   50.4120   29.1850   50.2560 C   0  0  0  0  0  0  0  0  0  0  0  0
   49.4540   27.5630   48.5800 C   0  0  0  0  0  0  0  0  0  0  0  0
   49.3800   26.0950   48.4100 N   0  0  0  0  0  0  0  0  0  0  0  0
   48.6700   25.4190   49.4350 C   0  0  0  0  0  0  0  0  0  0  0  0
   47.2350   25.0620   49.0470 C   0  0  0  0  0  0  0  0  0  0  0  0
   46.6160   25.9970   48.1750 N   0  0  0  0  0  0  0  0  0  0  0  0
   47.4080   26.1910   47.0080 C   0  0  0  0  0  0  0  0  0  0  0  0
   48.8280   25.7270   47.1300 C   0  0  0  0  0  0  0  0  0  0  0  0
   48.9150   30.0200   48.1920 S   0  0  0  0  0  0  0  0  0  0  0  0
   46.1190   32.6200   46.9990 C   0  0  0  0  0  0  0  0  0  0  0  0
   47.2490   31.8190   47.0730 C   0  0  0  0  0  0  0  0  0  0  0  0
   47.4540   30.9860   48.1400 C   0  0  0  0  0  0  0  0  0  0  0  0
   46.5380   30.9270   49.1660 C   0  0  0  0  0  0  0  0  0  0  0  0
   45.4150   31.6960   49.1360 C   0  0  0  0  0  0  0  0  0  0  0  0
   45.2290   32.5270   48.0520 C   0  0  0  0  0  0  0  0  0  0  0  0
   44.7180   35.3120   44.9660 C   0  0  0  0  0  0  0  0  0  0  0  0
   45.4570   35.2340   43.7610 C   0  0  0  0  0  0  0  0  0  0  0  0
   46.4330   34.2560   43.6560 C   0  0  0  0  0  0  0  0  0  0  0  0
   46.6640   33.3940   44.7000 N   0  0  0  0  0  0  0  0  0  0  0  0
   45.9250   33.5080   45.8420 C   0  0  0  0  0  0  0  0  0  0  0  0
   44.9540   34.4600   45.9830 N   0  0  0  0  0  0  0  0  0  0  0  0
   50.8833   32.7634   51.6293 H   0  0  0  0  0  0  0  0  0  0  0  0
   52.3954   28.5167   52.9234 H   0  0  0  0  0  0  0  0  0  0  0  0
   52.1022   26.2245   52.0438 H   0  0  0  0  0  0  0  0  0  0  0  0
   50.7302   25.8419   50.0311 H   0  0  0  0  0  0  0  0  0  0  0  0
   48.4352   27.9619   48.6938 H   0  0  0  0  0  0  0  0  0  0  0  0
   49.9435   27.9901   47.6923 H   0  0  0  0  0  0  0  0  0  0  0  0
   49.2071   24.4899   49.6765 H   0  0  0  0  0  0  0  0  0  0  0  0
   48.6129   26.1025   50.2950 H   0  0  0  0  0  0  0  0  0  0  0  0
   47.2465   24.0814   48.5487 H   0  0  0  0  0  0  0  0  0  0  0  0
   46.6477   25.0617   49.9771 H   0  0  0  0  0  0  0  0  0  0  0  0
   45.6890   25.6419   47.9003 H   0  0  0  0  0  0  0  0  0  0  0  0
   47.4177   27.2661   46.7754 H   0  0  0  0  0  0  0  0  0  0  0  0
   46.9489   25.5808   46.2162 H   0  0  0  0  0  0  0  0  0  0  0  0
   48.8598   24.6325   47.0251 H   0  0  0  0  0  0  0  0  0  0  0  0
   49.4239   26.2056   46.3389 H   0  0  0  0  0  0  0  0  0  0  0  0
   47.9916   31.8536   46.2622 H   0  0  0  0  0  0  0  0  0  0  0  0
   46.7149   30.2529   50.0171 H   0  0  0  0  0  0  0  0  0  0  0  0
   44.6784   31.6555   49.9520 H   0  0  0  0  0  0  0  0  0  0  0  0
   44.3228   33.1500   48.0237 H   0  0  0  0  0  0  0  0  0  0  0  0
   43.9385   36.0806   45.0739 H   0  0  0  0  0  0  0  0  0  0  0  0
   45.2620   35.9299   42.9317 H   0  0  0  0  0  0  0  0  0  0  0  0
   47.0251   34.1697   42.7330 H   0  0  0  0  0  0  0  0  0  0  0  0
  1  2  2  0
  1 10  1  0
  2  3  1  0
  3  4  2  0
  5  4  1  0
  5  6  2  0
  7  6  1  0
  8  7  2  0
  9 10  2  0
  9  8  1  0
 10  5  1  0
 11  9  1  0
 12 11  1  0
 12 13  1  0
 14 13  1  0
 15 14  1  0
 16 17  1  0
 16 15  1  0
 17 12  1  0
 18  1  1  0
 19 20  2  0
 19 24  1  0
 20 21  1  0
 21 18  1  0
 21 22  2  0
 23 22  1  0
 24 23  2  0
 25 30  2  0
 26 25  1  0
 27 26  2  0
 27 28  1  0
 28 29  2  0
 29 30  1  0
 29 19  1  0
  3 31  1  0
  6 32  1  0
  7 33  1  0
  8 34  1  0
 11 35  1  0
 11 36  1  0
 13 37  1  0
 13 38  1  0
 14 39  1  0
 14 40  1  0
 15 41  1  0
 16 42  1  0
 16 43  1  0
 17 44  1  0
 17 45  1  0
 20 46  1  0
 22 47  1  0
 23 48  1  0
 24 49  1  0
 25 50  1  0
 26 51  1  0
 27 52  1  0
M  ISO  8  31  14  32  14  33  14  34  14  35   8  36   8  37  13  38  13
M  ISO  8  39  13  40  13  41   5  42  13  43  13  44  13  45  13  46  14
M  ISO  6  47  14  48  14  49  14  50  14  51  14  52  14
M  END
>  <minimizedAffinity>  (1) 
-6.70490837

>  <minimizedRMSD>  (1) 
0.280650049

$$$$
