
     RDKit          3D

 30 32  0  0  1  0  0  0  0  0999 V2000
   48.1790   34.8570   42.1640 C   0  0  2  0  0  0  0  0  0  0  0  0
   46.8490   34.0960   42.2940 C   0  0  1  0  0  0  0  0  0  0  0  0
   47.3480   32.8210   42.4730 O   0  0  0  0  0  0  0  0  0  0  0  0
   48.2330   32.6510   41.4070 C   0  0  0  0  0  0  0  0  0  0  0  0
   48.7020   34.0360   40.9670 C   0  0  1  0  0  0  0  0  0  0  0  0
   44.4900   35.9600   44.6140 C   0  0  0  0  0  0  0  0  0  0  0  0
   45.1870   35.6920   43.4400 C   0  0  0  0  0  0  0  0  0  0  0  0
   46.0330   34.5940   43.3970 C   0  0  0  0  0  0  0  0  0  0  0  0
   46.1310   33.8280   44.5340 N   0  0  0  0  0  0  0  0  0  0  0  0
   45.4460   34.1080   45.6570 C   0  0  0  0  0  0  0  0  0  0  0  0
   44.6300   35.1710   45.6920 N   0  0  0  0  0  0  0  0  0  0  0  0
   49.0010   34.5730   43.2120 O   0  0  0  0  0  0  0  0  0  0  0  0
   48.0070   34.4860   39.8540 O   0  0  0  0  0  0  0  0  0  0  0  0
   48.3080   33.8090   38.6950 C   0  0  0  0  0  0  0  0  0  0  0  0
   47.1320   33.6300   37.7480 C   0  0  0  0  0  0  0  0  0  0  0  0
   48.3020   34.4730   37.3720 C   0  0  0  0  0  0  0  0  0  0  0  0
   48.1101   35.9526   42.0946 H   0  0  0  0  0  0  0  0  0  0  0  0
   46.1473   34.1878   41.4518 H   0  0  0  0  0  0  0  0  0  0  0  0
   49.0952   32.0482   41.7284 H   0  0  0  0  0  0  0  0  0  0  0  0
   47.7376   32.1297   40.5746 H   0  0  0  0  0  0  0  0  0  0  0  0
   49.7735   34.0831   40.7226 H   0  0  0  0  0  0  0  0  0  0  0  0
   43.8163   36.8283   44.6599 H   0  0  0  0  0  0  0  0  0  0  0  0
   45.0688   36.3409   42.5597 H   0  0  0  0  0  0  0  0  0  0  0  0
   45.5550   33.4667   46.5441 H   0  0  0  0  0  0  0  0  0  0  0  0
   48.5213   34.7387   44.0620 H   0  0  0  0  0  0  0  0  0  0  0  0
   49.0599   33.1879   39.2037 H   0  0  0  0  0  0  0  0  0  0  0  0
   46.9644   32.6632   37.2509 H   0  0  0  0  0  0  0  0  0  0  0  0
   46.0443   33.7813   37.8110 H   0  0  0  0  0  0  0  0  0  0  0  0
   48.9914   34.1302   36.5864 H   0  0  0  0  0  0  0  0  0  0  0  0
   48.4230   35.5126   37.0334 H   0  0  0  0  0  0  0  0  0  0  0  0
  1  2  1  0
  1 12  1  0
  2  3  1  0
  2  8  1  0
  4  3  1  0
  5  4  1  0
  5  1  1  0
  6 11  2  0
  7  6  1  0
  8  7  2  0
  8  9  1  0
  9 10  2  0
 10 11  1  0
 13  5  1  0
 14 13  1  0
 15 14  1  0
 16 15  1  0
 16 14  1  0
  1 17  1  6
  2 18  1  6
  4 19  1  0
  4 20  1  0
  5 21  1  6
  6 22  1  0
  7 23  1  0
 10 24  1  0
 12 25  1  0
 14 26  1  0
 15 27  1  0
 15 28  1  0
 16 29  1  0
 16 30  1  0
M  ISO  8  17  13  18  13  19  13  20  13  21  13  22  14  23  14  24  14
M  ISO  6  25   3  26  13  27  13  28  13  29  13  30  13
M  END
>  <minimizedAffinity>  (1) 
-4.8758049

>  <minimizedRMSD>  (1) 
1.47589993

$$$$
