
     RDKit          3D

 25 26  0  0  1  0  0  0  0  0999 V2000
   48.3060   34.9000   42.2130 C   0  0  2  0  0  0  0  0  0  0  0  0
   46.9260   34.2240   42.2290 C   0  0  1  0  0  0  0  0  0  0  0  0
   47.3370   32.9090   42.3180 O   0  0  0  0  0  0  0  0  0  0  0  0
   48.2650   32.7770   41.2800 C   0  0  0  0  0  0  0  0  0  0  0  0
   48.8320   34.1500   40.9790 C   0  0  1  0  0  0  0  0  0  0  0  0
   44.5160   35.9950   44.5640 C   0  0  0  0  0  0  0  0  0  0  0  0
   45.2330   35.7720   43.3930 C   0  0  0  0  0  0  0  0  0  0  0  0
   46.0870   34.6810   43.3330 C   0  0  0  0  0  0  0  0  0  0  0  0
   46.1750   33.8790   44.4440 N   0  0  0  0  0  0  0  0  0  0  0  0
   45.4690   34.1180   45.5640 C   0  0  0  0  0  0  0  0  0  0  0  0
   44.6400   35.1760   45.6220 N   0  0  0  0  0  0  0  0  0  0  0  0
   49.0600   34.4790   43.2690 O   0  0  0  0  0  0  0  0  0  0  0  0
   48.2100   34.7320   39.8740 O   0  0  0  0  0  0  0  0  0  0  0  0
   48.0710   34.1510   38.6220 C   0  0  0  0  0  0  0  0  0  0  0  0
   48.5750   34.7760   37.6410 O   0  0  0  0  0  0  0  0  0  0  0  0
   48.3087   35.9999   42.2294 H   0  0  0  0  0  0  0  0  0  0  0  0
   46.2693   34.4351   41.3722 H   0  0  0  0  0  0  0  0  0  0  0  0
   49.0743   32.0984   41.5873 H   0  0  0  0  0  0  0  0  0  0  0  0
   47.7797   32.3602   40.3852 H   0  0  0  0  0  0  0  0  0  0  0  0
   49.9145   34.1507   40.7838 H   0  0  0  0  0  0  0  0  0  0  0  0
   43.8355   36.8571   44.6249 H   0  0  0  0  0  0  0  0  0  0  0  0
   45.1247   36.4476   42.5317 H   0  0  0  0  0  0  0  0  0  0  0  0
   45.5695   33.4491   46.4314 H   0  0  0  0  0  0  0  0  0  0  0  0
   48.6115   34.7294   44.1153 H   0  0  0  0  0  0  0  0  0  0  0  0
   47.5479   33.1928   38.4868 H   0  0  0  0  0  0  0  0  0  0  0  0
  1  2  1  0
  1 12  1  0
  2  3  1  0
  2  8  1  0
  4  3  1  0
  5  4  1  0
  5  1  1  0
  6 11  2  0
  7  6  1  0
  8  7  2  0
  8  9  1  0
  9 10  2  0
 10 11  1  0
 13  5  1  0
 14 13  1  0
 15 14  2  0
  1 16  1  6
  2 17  1  6
  4 18  1  0
  4 19  1  0
  5 20  1  6
  6 21  1  0
  7 22  1  0
 10 23  1  0
 12 24  1  0
 14 25  1  0
M  ISO  8  16  13  17  13  18  13  19  13  20  13  21  14  22  14  23  14
M  ISO  2  24   3  25   6
M  END
>  <minimizedAffinity>  (1) 
-4.6659832

>  <minimizedRMSD>  (1) 
0.926135898

$$$$
