
     RDKit          3D

 34 36  0  0  1  0  0  0  0  0999 V2000
   45.0530   33.9780   42.4040 C   0  0  2  0  0  0  0  0  0  0  0  0
   46.1900   34.9130   41.9660 C   0  0  1  0  0  0  0  0  0  0  0  0
   46.1460   35.8030   43.0230 O   0  0  0  0  0  0  0  0  0  0  0  0
   44.8020   36.1860   43.0790 C   0  0  0  0  0  0  0  0  0  0  0  0
   43.9760   35.0740   42.4850 C   0  0  1  0  0  0  0  0  0  0  0  0
   49.0690   32.6210   41.0270 C   0  0  0  0  0  0  0  0  0  0  0  0
   47.7660   33.1100   41.0250 C   0  0  0  0  0  0  0  0  0  0  0  0
   47.4610   34.2120   41.8110 C   0  0  0  0  0  0  0  0  0  0  0  0
   48.4780   34.7590   42.5530 N   0  0  0  0  0  0  0  0  0  0  0  0
   49.7310   34.2680   42.5400 C   0  0  0  0  0  0  0  0  0  0  0  0
   50.0300   33.2020   41.7800 N   0  0  0  0  0  0  0  0  0  0  0  0
   45.2460   33.5440   43.6820 O   0  0  0  0  0  0  0  0  0  0  0  0
   43.6120   35.3570   41.1650 O   0  0  0  0  0  0  0  0  0  0  0  0
   42.4190   34.7780   40.8250 C   0  0  2  0  0  0  0  0  0  0  0  0
   42.1780   35.1130   39.3480 C   0  0  0  0  0  0  0  0  0  0  0  0
   40.7820   35.6860   39.3040 C   0  0  0  0  0  0  0  0  0  0  0  0
   40.2280   35.5420   40.5530 O   0  0  0  0  0  0  0  0  0  0  0  0
   41.2640   35.4740   41.4880 C   0  0  0  0  0  0  0  0  0  0  0  0
   44.8915   33.0878   41.7783 H   0  0  0  0  0  0  0  0  0  0  0  0
   46.0865   35.3803   40.9756 H   0  0  0  0  0  0  0  0  0  0  0  0
   44.5049   36.3541   44.1247 H   0  0  0  0  0  0  0  0  0  0  0  0
   44.6468   37.1192   42.5178 H   0  0  0  0  0  0  0  0  0  0  0  0
   43.0547   34.8614   43.0471 H   0  0  0  0  0  0  0  0  0  0  0  0
   49.3209   31.7484   40.4064 H   0  0  0  0  0  0  0  0  0  0  0  0
   46.9902   32.6304   40.4100 H   0  0  0  0  0  0  0  0  0  0  0  0
   50.5121   34.7410   43.1534 H   0  0  0  0  0  0  0  0  0  0  0  0
   44.9372   34.2384   44.3165 H   0  0  0  0  0  0  0  0  0  0  0  0
   42.4715   33.7115   41.0891 H   0  0  0  0  0  0  0  0  0  0  0  0
   42.9114   35.8524   38.9939 H   0  0  0  0  0  0  0  0  0  0  0  0
   42.2847   34.2306   38.6999 H   0  0  0  0  0  0  0  0  0  0  0  0
   40.8235   36.7515   39.0339 H   0  0  0  0  0  0  0  0  0  0  0  0
   40.1750   35.1603   38.5521 H   0  0  0  0  0  0  0  0  0  0  0  0
   40.9377   34.9045   42.3707 H   0  0  0  0  0  0  0  0  0  0  0  0
   41.5552   36.4812   41.8207 H   0  0  0  0  0  0  0  0  0  0  0  0
  1  5  1  0
  1 12  1  0
  2  1  1  0
  2  3  1  0
  3  4  1  0
  5  4  1  0
  6 11  2  0
  7  6  1  0
  7  8  2  0
  8  2  1  0
  8  9  1  0
 10  9  2  0
 11 10  1  0
 13  5  1  0
 14 13  1  0
 14 18  1  0
 15 14  1  0
 16 15  1  0
 16 17  1  0
 17 18  1  0
  1 19  1  6
  2 20  1  6
  4 21  1  0
  4 22  1  0
  5 23  1  1
  6 24  1  0
  7 25  1  0
 10 26  1  0
 12 27  1  0
 14 28  1  6
 15 29  1  0
 15 30  1  0
 16 31  1  0
 16 32  1  0
 18 33  1  0
 18 34  1  0
M  ISO  8  19  13  20  13  21  13  22  13  23  13  24  14  25  14  26  14
M  ISO  8  27   3  28  13  29  13  30  13  31  13  32  13  33  13  34  13
M  END
>  <minimizedAffinity>  (1) 
-4.55234718

>  <minimizedRMSD>  (1) 
5.99333096

$$$$
