
     RDKit          3D

 43 46  0  0  1  0  0  0  0  0999 V2000
   47.7710   33.9930   39.7350 O   0  0  0  0  0  0  0  0  0  0  0  0
   48.0330   34.7160   41.9760 C   0  0  2  0  0  0  0  0  0  0  0  0
   46.7230   33.9240   42.2430 C   0  0  1  0  0  0  0  0  0  0  0  0
   47.2630   32.7080   42.5400 O   0  0  0  0  0  0  0  0  0  0  0  0
   48.1440   32.4590   41.4690 C   0  0  0  0  0  0  0  0  0  0  0  0
   48.5250   33.8260   40.8590 C   0  0  1  0  0  0  0  0  0  0  0  0
   44.5150   36.0630   44.4830 C   0  0  0  0  0  0  0  0  0  0  0  0
   45.1800   35.6980   43.3080 C   0  0  0  0  0  0  0  0  0  0  0  0
   45.9470   34.5520   43.3200 C   0  0  0  0  0  0  0  0  0  0  0  0
   46.0040   33.8400   44.4990 N   0  0  0  0  0  0  0  0  0  0  0  0
   45.3510   34.2180   45.6120 C   0  0  0  0  0  0  0  0  0  0  0  0
   44.6030   35.3370   45.5980 N   0  0  0  0  0  0  0  0  0  0  0  0
   48.9090   34.5700   43.0120 O   0  0  0  0  0  0  0  0  0  0  0  0
   49.1510   32.9140   38.1570 C   0  0  1  0  0  0  0  0  0  0  0  0
   48.4770   34.3180   38.5780 C   0  0  1  0  0  0  0  0  0  0  0  0
   47.6210   34.4320   37.5480 O   0  0  0  0  0  0  0  0  0  0  0  0
   46.8750   33.2320   37.7170 C   0  0  0  0  0  0  0  0  0  0  0  0
   47.9620   32.1870   37.6070 C   0  0  1  0  0  0  0  0  0  0  0  0
   49.9790   33.2440   37.0760 O   0  0  0  0  0  0  0  0  0  0  0  0
   48.1190   31.8500   36.2770 O   0  0  0  0  0  0  0  0  0  0  0  0
   47.1100   31.4860   35.4010 C   0  0  0  0  0  0  0  0  0  0  0  0
   47.0880   32.0680   34.1370 C   0  0  0  0  0  0  0  0  0  0  0  0
   46.0160   31.5570   33.4700 N   0  0  0  0  0  0  0  0  0  0  0  0
   45.3870   30.6860   34.2810 C   0  0  0  0  0  0  0  0  0  0  0  0
   46.0470   30.6310   35.4710 N   0  0  0  0  0  0  0  0  0  0  0  0
   47.9213   35.7968   41.8043 H   0  0  0  0  0  0  0  0  0  0  0  0
   45.9825   33.8768   41.4309 H   0  0  0  0  0  0  0  0  0  0  0  0
   49.0455   31.9459   41.8349 H   0  0  0  0  0  0  0  0  0  0  0  0
   47.6674   31.8157   40.7147 H   0  0  0  0  0  0  0  0  0  0  0  0
   49.5739   33.9876   40.5699 H   0  0  0  0  0  0  0  0  0  0  0  0
   43.9013   36.9759   44.4875 H   0  0  0  0  0  0  0  0  0  0  0  0
   45.0934   36.3094   42.3976 H   0  0  0  0  0  0  0  0  0  0  0  0
   45.4277   33.6158   46.5293 H   0  0  0  0  0  0  0  0  0  0  0  0
   48.4218   34.6512   43.8700 H   0  0  0  0  0  0  0  0  0  0  0  0
   49.7009   32.3640   38.9349 H   0  0  0  0  0  0  0  0  0  0  0  0
   49.1074   35.2030   38.7493 H   0  0  0  0  0  0  0  0  0  0  0  0
   46.3833   33.1991   38.7004 H   0  0  0  0  0  0  0  0  0  0  0  0
   46.0556   33.1063   36.9940 H   0  0  0  0  0  0  0  0  0  0  0  0
   47.7712   31.2423   38.1371 H   0  0  0  0  0  0  0  0  0  0  0  0
   50.8430   33.5883   37.4152 H   0  0  0  0  0  0  0  0  0  0  0  0
   47.8052   32.8057   33.7478 H   0  0  0  0  0  0  0  0  0  0  0  0
   45.7345   31.7963   32.5086 H   0  0  0  0  0  0  0  0  0  0  0  0
   44.4851   30.1112   34.0239 H   0  0  0  0  0  0  0  0  0  0  0  0
  1  6  1  0
  2  3  1  0
  2 13  1  0
  3  4  1  0
  3  9  1  0
  5  4  1  0
  6  5  1  0
  6  2  1  0
  7 12  2  0
  8  9  2  0
  8  7  1  0
  9 10  1  0
 10 11  2  0
 12 11  1  0
 14 15  1  0
 15  1  1  0
 16 17  1  0
 16 15  1  0
 18 17  1  0
 18 14  1  0
 19 14  1  0
 20 18  1  0
 21 25  1  0
 21 20  1  0
 22 21  2  0
 23 22  1  0
 23 24  1  0
 24 25  2  0
  2 26  1  6
  3 27  1  6
  5 28  1  0
  5 29  1  0
  6 30  1  6
  7 31  1  0
  8 32  1  0
 11 33  1  0
 13 34  1  0
 14 35  1  1
 15 36  1  1
 17 37  1  0
 17 38  1  0
 18 39  1  1
 19 40  1  0
 22 41  1  0
 23 42  1  0
 24 43  1  0
M  ISO  8  26  13  27  13  28  13  29  13  30  13  31  14  32  14  33  14
M  ISO  8  34   3  35  13  36  13  37  13  38  13  39  13  40   3  41  14
M  ISO  2  42   9  43  14
M  END
>  <minimizedAffinity>  (1) 
-5.60313463

>  <minimizedRMSD>  (1) 
1.18494642

$$$$
