
     RDKit          3D

 42 44  0  0  1  0  0  0  0  0999 V2000
   48.0340   34.6800   41.9740 C   0  0  2  0  0  0  0  0  0  0  0  0
   46.7280   33.8930   42.2550 C   0  0  1  0  0  0  0  0  0  0  0  0
   47.2670   32.6790   42.5660 O   0  0  0  0  0  0  0  0  0  0  0  0
   48.1460   32.4150   41.4950 C   0  0  0  0  0  0  0  0  0  0  0  0
   48.5230   33.7740   40.8670 C   0  0  1  0  0  0  0  0  0  0  0  0
   44.5160   36.0570   44.4660 C   0  0  0  0  0  0  0  0  0  0  0  0
   45.1860   35.6760   43.3010 C   0  0  0  0  0  0  0  0  0  0  0  0
   45.9520   34.5320   43.3250 C   0  0  0  0  0  0  0  0  0  0  0  0
   46.0050   33.8320   44.5110 N   0  0  0  0  0  0  0  0  0  0  0  0
   45.3480   34.2240   45.6180 C   0  0  0  0  0  0  0  0  0  0  0  0
   44.6020   35.3420   45.5890 N   0  0  0  0  0  0  0  0  0  0  0  0
   48.9170   34.5410   43.0100 O   0  0  0  0  0  0  0  0  0  0  0  0
   47.7670   33.9270   39.7440 O   0  0  0  0  0  0  0  0  0  0  0  0
   49.1460   32.9250   38.1170 C   0  0  1  0  0  0  0  0  0  0  0  0
   48.4590   34.3040   38.5960 C   0  0  1  0  0  0  0  0  0  0  0  0
   47.5930   34.4460   37.5750 O   0  0  0  0  0  0  0  0  0  0  0  0
   46.8640   33.2320   37.7040 C   0  0  0  0  0  0  0  0  0  0  0  0
   47.9620   32.2060   37.5460 C   0  0  1  0  0  0  0  0  0  0  0  0
   49.9630   33.3070   37.0430 O   0  0  0  0  0  0  0  0  0  0  0  0
   48.1140   31.9220   36.2030 O   0  0  0  0  0  0  0  0  0  0  0  0
   46.8940   31.6700   35.5740 C   0  0  0  0  0  0  0  0  0  0  0  0
   46.9890   31.9580   34.0780 C   0  0  0  0  0  0  0  0  0  0  0  0
   47.9211   35.7586   41.7900 H   0  0  0  0  0  0  0  0  0  0  0  0
   45.9868   33.8377   41.4441 H   0  0  0  0  0  0  0  0  0  0  0  0
   49.0491   31.9076   41.8651 H   0  0  0  0  0  0  0  0  0  0  0  0
   47.6687   31.7604   40.7509 H   0  0  0  0  0  0  0  0  0  0  0  0
   49.5712   33.9315   40.5731 H   0  0  0  0  0  0  0  0  0  0  0  0
   43.9020   36.9696   44.4572 H   0  0  0  0  0  0  0  0  0  0  0  0
   45.1034   36.2773   42.3836 H   0  0  0  0  0  0  0  0  0  0  0  0
   45.4210   33.6323   46.5424 H   0  0  0  0  0  0  0  0  0  0  0  0
   48.4319   34.6174   43.8696 H   0  0  0  0  0  0  0  0  0  0  0  0
   49.7070   32.3518   38.8698 H   0  0  0  0  0  0  0  0  0  0  0  0
   49.0795   35.1899   38.7965 H   0  0  0  0  0  0  0  0  0  0  0  0
   46.3809   33.1557   38.6893 H   0  0  0  0  0  0  0  0  0  0  0  0
   46.0404   33.1235   36.9830 H   0  0  0  0  0  0  0  0  0  0  0  0
   47.7858   31.2390   38.0398 H   0  0  0  0  0  0  0  0  0  0  0  0
   50.8027   33.6996   37.3905 H   0  0  0  0  0  0  0  0  0  0  0  0
   46.6226   30.6143   35.7220 H   0  0  0  0  0  0  0  0  0  0  0  0
   46.1277   32.3260   36.0126 H   0  0  0  0  0  0  0  0  0  0  0  0
   47.3302   32.9924   33.9247 H   0  0  0  0  0  0  0  0  0  0  0  0
   47.7056   31.2632   33.6156 H   0  0  0  0  0  0  0  0  0  0  0  0
   45.9997   31.8259   33.6156 H   0  0  0  0  0  0  0  0  0  0  0  0
  1  2  1  0
  1 12  1  0
  2  3  1  0
  2  8  1  0
  4  3  1  0
  5  4  1  0
  5  1  1  0
  6 11  2  0
  7  8  2  0
  7  6  1  0
  8  9  1  0
  9 10  2  0
 11 10  1  0
 13  5  1  0
 14 15  1  0
 15 13  1  0
 16 17  1  0
 16 15  1  0
 18 17  1  0
 18 14  1  0
 19 14  1  0
 20 18  1  0
 21 20  1  0
 22 21  1  0
  1 23  1  6
  2 24  1  6
  4 25  1  0
  4 26  1  0
  5 27  1  6
  6 28  1  0
  7 29  1  0
 10 30  1  0
 12 31  1  0
 14 32  1  1
 15 33  1  1
 17 34  1  0
 17 35  1  0
 18 36  1  1
 19 37  1  0
 21 38  1  0
 21 39  1  0
 22 40  1  0
 22 41  1  0
 22 42  1  0
M  ISO  8  23  13  24  13  25  13  26  13  27  13  28  14  29  14  30  14
M  ISO  8  31   3  32  13  33  13  34  13  35  13  36  13  37   3  38   8
M  ISO  4  39   8  40   8  41   8  42   8
M  END
>  <minimizedAffinity>  (1) 
-5.01351881

>  <minimizedRMSD>  (1) 
0.559355497

$$$$
