
     RDKit          3D

 28 30  0  0  0  0  0  0  0  0999 V2000
   43.0320   34.6010   39.4450 C   0  0  0  0  0  0  0  0  0  0  0  0
   44.1290   34.1280   40.1620 C   0  0  0  0  0  0  0  0  0  0  0  0
   44.3160   34.3340   41.5220 C   0  0  0  0  0  0  0  0  0  0  0  0
   43.2990   35.0590   42.0810 N   0  0  0  0  0  0  0  0  0  0  0  0
   42.2420   35.5230   41.4210 C   0  0  0  0  0  0  0  0  0  0  0  0
   42.1230   35.2890   40.1200 N   0  0  0  0  0  0  0  0  0  0  0  0
   42.9410   34.3320   38.0590 N   0  0  0  0  0  0  0  0  0  0  0  0
   45.4010   33.9830   42.3880 C   0  0  0  0  0  0  0  0  0  0  0  0
   45.0610   33.1890   43.4940 C   0  0  0  0  0  0  0  0  0  0  0  0
   45.9490   32.7380   44.4380 C   0  0  0  0  0  0  0  0  0  0  0  0
   47.2730   33.0800   44.3030 C   0  0  0  0  0  0  0  0  0  0  0  0
   47.6870   33.8520   43.2470 C   0  0  0  0  0  0  0  0  0  0  0  0
   49.0160   34.1710   43.0840 C   0  0  0  0  0  0  0  0  0  0  0  0
   49.4670   34.9170   42.0060 C   0  0  0  0  0  0  0  0  0  0  0  0
   48.4920   35.3260   41.0900 C   0  0  0  0  0  0  0  0  0  0  0  0
   47.1760   34.9880   41.2900 C   0  0  0  0  0  0  0  0  0  0  0  0
   46.7290   34.2550   42.3550 C   0  0  0  0  0  0  0  0  0  0  0  0
   44.8942   33.5560   39.6167 H   0  0  0  0  0  0  0  0  0  0  0  0
   41.4691   36.0986   41.9513 H   0  0  0  0  0  0  0  0  0  0  0  0
   43.6810   33.7906   37.5898 H   0  0  0  0  0  0  0  0  0  0  0  0
   42.1347   34.6776   37.5192 H   0  0  0  0  0  0  0  0  0  0  0  0
   44.0044   32.9073   43.6131 H   0  0  0  0  0  0  0  0  0  0  0  0
   45.6096   32.1185   45.2812 H   0  0  0  0  0  0  0  0  0  0  0  0
   48.0057   32.7326   45.0463 H   0  0  0  0  0  0  0  0  0  0  0  0
   49.7431   33.8231   43.8326 H   0  0  0  0  0  0  0  0  0  0  0  0
   50.5293   35.1724   41.8784 H   0  0  0  0  0  0  0  0  0  0  0  0
   48.7796   35.9187   40.2091 H   0  0  0  0  0  0  0  0  0  0  0  0
   46.4369   35.3271   40.5492 H   0  0  0  0  0  0  0  0  0  0  0  0
  1  6  2  0
  1  2  1  0
  2  3  2  0
  3  4  1  0
  3  8  1  0
  5  4  2  0
  6  5  1  0
  7  1  1  0
  8  9  2  0
  9 10  1  0
 11 10  2  0
 12 11  1  0
 13 12  2  0
 14 13  1  0
 15 16  1  0
 15 14  2  0
 16 17  2  0
 17  8  1  0
 17 12  1  0
  2 18  1  0
  5 19  1  0
  7 20  1  0
  7 21  1  0
  9 22  1  0
 10 23  1  0
 11 24  1  0
 13 25  1  0
 14 26  1  0
 15 27  1  0
 16 28  1  0
M  ISO  8  18  14  19  14  22  14  23  14  24  14  25  14  26  14  27  14
M  ISO  1  28  14
M  END
>  <minimizedAffinity>  (1) 
-5.38736963

>  <minimizedRMSD>  (1) 
4.18067932

$$$$
