
     RDKit          3D

 23 25  0  0  0  0  0  0  0  0999 V2000
   47.1380   34.7870   41.8330 N   0  0  0  0  0  0  0  0  0  0  0  0
   48.3040   35.4680   41.7290 C   0  0  0  0  0  0  0  0  0  0  0  0
   48.8330   35.3190   40.4830 N   0  0  0  0  0  0  0  0  0  0  0  0
   48.0050   34.5410   39.7860 C   0  0  0  0  0  0  0  0  0  0  0  0
   47.9330   34.0110   38.5090 C   0  0  0  0  0  0  0  0  0  0  0  0
   46.8900   33.2320   38.1540 N   0  0  0  0  0  0  0  0  0  0  0  0
   45.8820   32.9450   39.0290 C   0  0  0  0  0  0  0  0  0  0  0  0
   45.8920   33.4340   40.2970 N   0  0  0  0  0  0  0  0  0  0  0  0
   46.9540   34.2110   40.6170 C   0  0  0  0  0  0  0  0  0  0  0  0
   46.0190   34.1000   45.3310 C   0  0  0  0  0  0  0  0  0  0  0  0
   46.8040   34.0300   44.1700 C   0  0  0  0  0  0  0  0  0  0  0  0
   46.4020   34.7980   43.0500 C   0  0  0  0  0  0  0  0  0  0  0  0
   45.2810   35.5570   43.1710 N   0  0  0  0  0  0  0  0  0  0  0  0
   44.5550   35.5950   44.3100 C   0  0  0  0  0  0  0  0  0  0  0  0
   44.9270   34.8660   45.3850 N   0  0  0  0  0  0  0  0  0  0  0  0
   46.4210   33.3270   46.4620 N   0  0  0  0  0  0  0  0  0  0  0  0
   48.7597   36.0585   42.5374 H   0  0  0  0  0  0  0  0  0  0  0  0
   48.7291   34.2258   37.7810 H   0  0  0  0  0  0  0  0  0  0  0  0
   45.0476   32.3071   38.7021 H   0  0  0  0  0  0  0  0  0  0  0  0
   47.7037   33.3983   44.1310 H   0  0  0  0  0  0  0  0  0  0  0  0
   43.6543   36.2242   44.3624 H   0  0  0  0  0  0  0  0  0  0  0  0
   47.2652   32.7391   46.4103 H   0  0  0  0  0  0  0  0  0  0  0  0
   45.8669   33.3572   47.3297 H   0  0  0  0  0  0  0  0  0  0  0  0
  1 12  1  0
  2  1  1  0
  3  2  2  0
  4  3  1  0
  4  9  2  0
  5  4  1  0
  6  5  2  0
  6  7  1  0
  7  8  2  0
  8  9  1  0
  9  1  1  0
 10 15  2  0
 10 16  1  0
 11 10  1  0
 12 13  1  0
 12 11  2  0
 13 14  2  0
 14 15  1  0
  2 17  1  0
  5 18  1  0
  7 19  1  0
 11 20  1  0
 14 21  1  0
 16 22  1  0
 16 23  1  0
M  ISO  5  17  14  18  14  19  14  20  14  21  14
M  END
>  <minimizedAffinity>  (1) 
-5.01370335

>  <minimizedRMSD>  (1) 
4.16092205

$$$$
