
     RDKit          3D

 28 29  0  0  0  0  0  0  0  0999 V2000
   44.9130   35.0320   44.5280 C   0  0  0  0  0  0  0  0  0  0  0  0
   45.8140   34.9480   43.4540 C   0  0  0  0  0  0  0  0  0  0  0  0
   46.9270   34.0770   43.5660 C   0  0  0  0  0  0  0  0  0  0  0  0
   47.0410   33.3790   44.7220 N   0  0  0  0  0  0  0  0  0  0  0  0
   46.1710   33.4740   45.7340 C   0  0  0  0  0  0  0  0  0  0  0  0
   45.1200   34.2950   45.6290 N   0  0  0  0  0  0  0  0  0  0  0  0
   43.7890   35.9000   44.4350 N   0  0  0  0  0  0  0  0  0  0  0  0
   47.8580   34.0000   42.4400 C   0  0  0  0  0  0  0  0  0  0  0  0
   48.3320   32.5840   42.2040 C   0  0  0  0  0  0  0  0  0  0  0  0
   49.4410   32.6970   41.1770 C   0  0  0  0  0  0  0  0  0  0  0  0
   48.7350   33.0760   39.8850 C   0  0  0  0  0  0  0  0  0  0  0  0
   48.0290   34.3940   39.9590 C   0  0  0  0  0  0  0  0  0  0  0  0
   47.2440   34.6100   41.2150 C   0  0  0  0  0  0  0  0  0  0  0  0
   45.6592   35.5462   42.5439 H   0  0  0  0  0  0  0  0  0  0  0  0
   46.3192   32.8800   46.6479 H   0  0  0  0  0  0  0  0  0  0  0  0
   43.6406   36.4611   43.5841 H   0  0  0  0  0  0  0  0  0  0  0  0
   43.1239   35.9671   45.2186 H   0  0  0  0  0  0  0  0  0  0  0  0
   48.7555   34.5851   42.6891 H   0  0  0  0  0  0  0  0  0  0  0  0
   48.7150   32.1457   43.1374 H   0  0  0  0  0  0  0  0  0  0  0  0
   47.5170   31.9323   41.8561 H   0  0  0  0  0  0  0  0  0  0  0  0
   50.1612   33.4758   41.4682 H   0  0  0  0  0  0  0  0  0  0  0  0
   50.0138   31.7630   41.0792 H   0  0  0  0  0  0  0  0  0  0  0  0
   47.9951   32.2966   39.6501 H   0  0  0  0  0  0  0  0  0  0  0  0
   49.5070   33.1639   39.1063 H   0  0  0  0  0  0  0  0  0  0  0  0
   48.7826   35.1917   39.8838 H   0  0  0  0  0  0  0  0  0  0  0  0
   47.3040   34.4065   39.1318 H   0  0  0  0  0  0  0  0  0  0  0  0
   47.1497   35.6934   41.3801 H   0  0  0  0  0  0  0  0  0  0  0  0
   46.2734   34.1134   41.0688 H   0  0  0  0  0  0  0  0  0  0  0  0
  1  6  2  0
  2  3  2  0
  2  1  1  0
  3  4  1  0
  4  5  2  0
  6  5  1  0
  7  1  1  0
  8  3  1  0
  9  8  1  0
 10  9  1  0
 11 12  1  0
 11 10  1  0
 12 13  1  0
 13  8  1  0
  2 14  1  0
  5 15  1  0
  7 16  1  0
  7 17  1  0
  8 18  1  0
  9 19  1  0
  9 20  1  0
 10 21  1  0
 10 22  1  0
 11 23  1  0
 11 24  1  0
 12 25  1  0
 12 26  1  0
 13 27  1  0
 13 28  1  0
M  ISO  8  14  14  15  14  18  13  19  13  20  13  21  13  22  13  23  13
M  ISO  5  24  13  25  13  26  13  27  13  28  13
M  END
>  <minimizedAffinity>  (1) 
-4.76424551

>  <minimizedRMSD>  (1) 
1.30756819

$$$$
