
     RDKit          3D

 14 14  0  0  0  0  0  0  0  0999 V2000
   45.1040   35.3710   44.1010 C   0  0  0  0  0  0  0  0  0  0  0  0
   46.1640   34.7870   43.3750 C   0  0  0  0  0  0  0  0  0  0  0  0
   46.8860   33.7370   43.9670 C   0  0  0  0  0  0  0  0  0  0  0  0
   46.5090   33.3530   45.2120 N   0  0  0  0  0  0  0  0  0  0  0  0
   45.4980   33.9240   45.8790 C   0  0  0  0  0  0  0  0  0  0  0  0
   44.8030   34.9250   45.3270 N   0  0  0  0  0  0  0  0  0  0  0  0
   44.3800   36.4300   43.4970 N   0  0  0  0  0  0  0  0  0  0  0  0
   47.9570   33.1410   43.2410 N   0  0  0  0  0  0  0  0  0  0  0  0
   46.4195   35.1462   42.3672 H   0  0  0  0  0  0  0  0  0  0  0  0
   45.2374   33.5679   46.8866 H   0  0  0  0  0  0  0  0  0  0  0  0
   44.6328   36.7536   42.5524 H   0  0  0  0  0  0  0  0  0  0  0  0
   43.6013   36.8757   44.0029 H   0  0  0  0  0  0  0  0  0  0  0  0
   48.4969   32.3702   43.6597 H   0  0  0  0  0  0  0  0  0  0  0  0
   48.1915   33.4809   42.2974 H   0  0  0  0  0  0  0  0  0  0  0  0
  1  6  2  0
  2  3  2  0
  2  1  1  0
  3  4  1  0
  4  5  2  0
  6  5  1  0
  7  1  1  0
  8  3  1  0
  2  9  1  0
  5 10  1  0
  7 11  1  0
  7 12  1  0
  8 13  1  0
  8 14  1  0
M  ISO  2   9  14  10  14
M  END
>  <minimizedAffinity>  (1) 
-3.18561196

>  <minimizedRMSD>  (1) 
0.0965434015

$$$$
