
     RDKit          3D

 20 20  0  0  0  0  0  0  0  0999 V2000
   45.0790   35.0900   44.0290 C   0  0  0  0  0  0  0  0  0  0  0  0
   45.8800   35.3900   42.9060 C   0  0  0  0  0  0  0  0  0  0  0  0
   47.0790   34.7110   42.7280 C   0  0  0  0  0  0  0  0  0  0  0  0
   47.4020   33.7840   43.6690 N   0  0  0  0  0  0  0  0  0  0  0  0
   46.6240   33.5160   44.7260 C   0  0  0  0  0  0  0  0  0  0  0  0
   45.4660   34.1590   44.9170 N   0  0  0  0  0  0  0  0  0  0  0  0
   43.8520   35.7740   44.2220 N   0  0  0  0  0  0  0  0  0  0  0  0
   47.9250   35.0060   41.5600 C   0  0  0  0  0  0  0  0  0  0  0  0
   49.1030   35.8240   42.0090 C   0  0  0  0  0  0  0  0  0  0  0  0
   49.9500   35.1030   42.9380 N   0  0  0  0  0  0  0  0  0  0  0  0
   45.5588   36.1521   42.1807 H   0  0  0  0  0  0  0  0  0  0  0  0
   46.9431   32.7527   45.4509 H   0  0  0  0  0  0  0  0  0  0  0  0
   43.5490   36.4890   43.5453 H   0  0  0  0  0  0  0  0  0  0  0  0
   43.2638   35.5559   45.0389 H   0  0  0  0  0  0  0  0  0  0  0  0
   47.3443   35.5714   40.8163 H   0  0  0  0  0  0  0  0  0  0  0  0
   48.2738   34.0673   41.1047 H   0  0  0  0  0  0  0  0  0  0  0  0
   49.6995   36.0994   41.1268 H   0  0  0  0  0  0  0  0  0  0  0  0
   48.7171   36.7147   42.5264 H   0  0  0  0  0  0  0  0  0  0  0  0
   49.6766   35.3357   43.9034 H   0  0  0  0  0  0  0  0  0  0  0  0
   49.8425   34.0900   42.7854 H   0  0  0  0  0  0  0  0  0  0  0  0
  1  7  1  0
  1  6  2  0
  2  1  1  0
  3  2  2  0
  3  4  1  0
  4  5  2  0
  5  6  1  0
  8  9  1  0
  8  3  1  0
  9 10  1  0
  2 11  1  0
  5 12  1  0
  7 13  1  0
  7 14  1  0
  8 15  1  0
  8 16  1  0
  9 17  1  0
  9 18  1  0
 10 19  1  0
 10 20  1  0
M  ISO  8  11  14  12  14  15   8  16   8  17   8  18   8  19   5  20   5
M  END
>  <minimizedAffinity>  (1) 
-4.50624561

>  <minimizedRMSD>  (1) 
0.209570035

$$$$
