
     RDKit          3D

 22 22  0  0  0  0  0  0  0  0999 V2000
   44.9180   35.0480   44.5130 C   0  0  0  0  0  0  0  0  0  0  0  0
   45.8220   34.8110   43.4380 C   0  0  0  0  0  0  0  0  0  0  0  0
   46.8560   33.9140   43.6330 C   0  0  0  0  0  0  0  0  0  0  0  0
   46.9660   33.3010   44.8280 N   0  0  0  0  0  0  0  0  0  0  0  0
   46.1010   33.5390   45.8350 C   0  0  0  0  0  0  0  0  0  0  0  0
   45.0790   34.4070   45.6820 N   0  0  0  0  0  0  0  0  0  0  0  0
   43.8520   35.9460   44.3480 N   0  0  0  0  0  0  0  0  0  0  0  0
   47.7840   33.6700   42.5010 C   0  0  0  0  0  0  0  0  0  0  0  0
   48.6890   34.8520   42.3470 C   0  0  0  0  0  0  0  0  0  0  0  0
   50.8460   33.5200   42.4790 C   0  0  0  0  0  0  0  0  0  0  0  0
   50.5800   32.8480   41.4500 O   0  0  0  0  0  0  0  0  0  0  0  0
   49.9580   34.5160   42.9680 N   0  0  0  0  0  0  0  0  0  0  0  0
   45.7004   35.3294   42.4754 H   0  0  0  0  0  0  0  0  0  0  0  0
   46.2304   33.0180   46.7951 H   0  0  0  0  0  0  0  0  0  0  0  0
   43.7273   36.4383   43.4519 H   0  0  0  0  0  0  0  0  0  0  0  0
   43.1944   36.1127   45.1230 H   0  0  0  0  0  0  0  0  0  0  0  0
   48.3839   32.7705   42.7037 H   0  0  0  0  0  0  0  0  0  0  0  0
   47.2087   33.5203   41.5755 H   0  0  0  0  0  0  0  0  0  0  0  0
   48.8401   35.0725   41.2800 H   0  0  0  0  0  0  0  0  0  0  0  0
   48.2488   35.7407   42.8229 H   0  0  0  0  0  0  0  0  0  0  0  0
   51.7889   33.3324   43.0136 H   0  0  0  0  0  0  0  0  0  0  0  0
   50.2317   35.0321   43.8163 H   0  0  0  0  0  0  0  0  0  0  0  0
  1  6  2  0
  2  3  2  0
  2  1  1  0
  3  4  1  0
  4  5  2  0
  6  5  1  0
  7  1  1  0
  8  3  1  0
  9  8  1  0
  9 12  1  0
 10 12  1  0
 11 10  2  0
  2 13  1  0
  5 14  1  0
  7 15  1  0
  7 16  1  0
  8 17  1  0
  8 18  1  0
  9 19  1  0
  9 20  1  0
 10 21  1  0
 12 22  1  0
M  ISO  7  13  14  14  14  17   8  18   8  19   8  20   8  21   6
M  END
>  <minimizedAffinity>  (1) 
-4.35422802

>  <minimizedRMSD>  (1) 
2.34758735

$$$$
