
     RDKit          3D

 29 30  0  0  0  0  0  0  0  0999 V2000
   47.5630   31.8880   44.7850 Cl  0  0  0  0  0  0  0  0  0  0  0  0
   46.7940   31.9930   46.3560 C   0  0  0  0  0  0  0  0  0  0  0  0
   45.8990   33.0100   46.5600 C   0  0  0  0  0  0  0  0  0  0  0  0
   45.2970   33.0850   47.7790 C   0  0  0  0  0  0  0  0  0  0  0  0
   45.6030   32.1470   48.7580 C   0  0  0  0  0  0  0  0  0  0  0  0
   46.5080   31.1270   48.5380 C   0  0  0  0  0  0  0  0  0  0  0  0
   47.1280   31.0470   47.2880 C   0  0  0  0  0  0  0  0  0  0  0  0
   44.5020   35.8300   44.7110 C   0  0  0  0  0  0  0  0  0  0  0  0
   45.1560   35.7740   43.4590 C   0  0  0  0  0  0  0  0  0  0  0  0
   46.0890   34.7240   43.2880 C   0  0  0  0  0  0  0  0  0  0  0  0
   46.2780   33.8680   44.3240 N   0  0  0  0  0  0  0  0  0  0  0  0
   45.6260   33.9690   45.4980 C   0  0  0  0  0  0  0  0  0  0  0  0
   44.7330   34.9600   45.6840 N   0  0  0  0  0  0  0  0  0  0  0  0
   46.7530   34.6840   41.9880 C   0  0  0  0  0  0  0  0  0  0  0  0
   47.4950   33.5120   41.8930 F   0  0  0  0  0  0  0  0  0  0  0  0
   47.6650   35.7110   41.9730 F   0  0  0  0  0  0  0  0  0  0  0  0
   45.8780   34.7310   40.9330 F   0  0  0  0  0  0  0  0  0  0  0  0
   47.9990   30.0120   47.1710 O   0  0  0  0  0  0  0  0  0  0  0  0
   48.1070   27.5440   46.1220 O   0  0  0  0  0  0  0  0  0  0  0  0
   47.7390   28.3590   47.3530 P   0  0  0  0  0  0  0  0  0  0  0  0
   46.1410   28.0470   47.8220 O   0  0  0  0  0  0  0  0  0  0  0  0
   48.7390   27.7370   48.6020 O   0  0  0  0  0  0  0  0  0  0  0  0
   44.5713   33.8848   47.9882 H   0  0  0  0  0  0  0  0  0  0  0  0
   45.1092   32.2192   49.7383 H   0  0  0  0  0  0  0  0  0  0  0  0
   46.7352   30.3954   49.3274 H   0  0  0  0  0  0  0  0  0  0  0  0
   43.7688   36.6312   44.8855 H   0  0  0  0  0  0  0  0  0  0  0  0
   44.9513   36.5051   42.6630 H   0  0  0  0  0  0  0  0  0  0  0  0
   46.0833   28.0357   48.8103 H   0  0  0  0  0  0  0  0  0  0  0  0
   48.3546   27.9761   49.4824 H   0  0  0  0  0  0  0  0  0  0  0  0
  1  2  1  0
  2  3  2  0
  2  7  1  0
  3  4  1  0
  4  5  2  0
  6  5  1  0
  7  6  2  0
  8 13  2  0
  9  8  1  0
 10  9  2  0
 10 11  1  0
 11 12  2  0
 12 13  1  0
 12  3  1  0
 14 10  1  0
 15 14  1  0
 16 14  1  0
 17 14  1  0
 18  7  1  0
 18 20  1  0
 19 20  2  0
 20 21  1  0
 20 22  1  0
  4 23  1  0
  5 24  1  0
  6 25  1  0
  8 26  1  0
  9 27  1  0
 21 28  1  0
 22 29  1  0
M  ISO  7  23  14  24  14  25  14  26  14  27  14  28   3  29   3
M  END
>  <minimizedAffinity>  (1) 
-5.94504166

>  <minimizedRMSD>  (1) 
0.993241608

$$$$
