
     RDKit          3D

 36 37  0  0  0  0  0  0  0  0999 V2000
   46.5900   31.5010   43.7800 C   0  0  0  0  0  0  0  0  0  0  0  0
   47.4430   30.5580   44.5750 C   0  0  0  0  0  0  0  0  0  0  0  0
   45.7060   31.5360   47.7650 C   0  0  0  0  0  0  0  0  0  0  0  0
   45.9720   31.3590   46.3790 C   0  0  0  0  0  0  0  0  0  0  0  0
   47.1660   30.7440   46.0160 C   0  0  0  0  0  0  0  0  0  0  0  0
   48.0150   30.3450   46.9840 N   0  0  0  0  0  0  0  0  0  0  0  0
   47.7280   30.5320   48.2960 C   0  0  0  0  0  0  0  0  0  0  0  0
   46.5840   31.1220   48.6830 N   0  0  0  0  0  0  0  0  0  0  0  0
   44.5060   32.1550   48.1660 N   0  0  0  0  0  0  0  0  0  0  0  0
   47.3140   32.0180   42.7320 O   0  0  0  0  0  0  0  0  0  0  0  0
   49.3490   33.6600   42.8560 O   0  0  0  0  0  0  0  0  0  0  0  0
   47.8590   33.5930   43.0530 P   0  0  2  0  0  0  0  0  0  0  0  0
   47.3890   33.9720   44.6210 O   0  0  0  0  0  0  0  0  0  0  0  0
   47.0450   34.6670   42.0160 O   0  0  0  0  0  0  0  0  0  0  0  0
   44.8320   35.1280   42.4610 C   0  0  0  0  0  0  0  0  0  0  0  0
   45.7460   34.5260   41.5900 C   0  0  0  0  0  0  0  0  0  0  0  0
   45.2470   33.8950   40.4650 C   0  0  0  0  0  0  0  0  0  0  0  0
   43.8870   33.8700   40.2230 C   0  0  0  0  0  0  0  0  0  0  0  0
   42.9870   34.4630   41.0840 C   0  0  0  0  0  0  0  0  0  0  0  0
   43.4710   35.0900   42.1990 C   0  0  0  0  0  0  0  0  0  0  0  0
   45.1860   35.7990   43.6340 O   0  0  0  0  0  0  0  0  0  0  0  0
   42.5420   35.6860   43.0610 O   0  0  0  0  0  0  0  0  0  0  0  0
   45.7164   30.9598   43.3877 H   0  0  0  0  0  0  0  0  0  0  0  0
   46.2573   32.3234   44.4303 H   0  0  0  0  0  0  0  0  0  0  0  0
   47.2116   29.5218   44.2872 H   0  0  0  0  0  0  0  0  0  0  0  0
   48.5048   30.7639   44.3745 H   0  0  0  0  0  0  0  0  0  0  0  0
   45.2551   31.6982   45.6168 H   0  0  0  0  0  0  0  0  0  0  0  0
   48.4454   30.1943   49.0584 H   0  0  0  0  0  0  0  0  0  0  0  0
   43.8294   32.4740   47.4579 H   0  0  0  0  0  0  0  0  0  0  0  0
   44.3051   32.2887   49.1673 H   0  0  0  0  0  0  0  0  0  0  0  0
   47.9747   33.4997   45.2644 H   0  0  0  0  0  0  0  0  0  0  0  0
   45.9370   33.4102   39.7587 H   0  0  0  0  0  0  0  0  0  0  0  0
   43.5123   33.3644   39.3208 H   0  0  0  0  0  0  0  0  0  0  0  0
   41.9067   34.4323   40.8789 H   0  0  0  0  0  0  0  0  0  0  0  0
   44.4846   36.2023   44.2045 H   0  0  0  0  0  0  0  0  0  0  0  0
   42.8522   36.1497   43.8788 H   0  0  0  0  0  0  0  0  0  0  0  0
  1  2  1  0
  2  5  1  0
  3  9  1  0
  3  8  2  0
  4  3  1  0
  5  4  2  0
  5  6  1  0
  6  7  2  0
  7  8  1  0
 10 12  1  0
 10  1  1  0
 12 11  2  0
 12 13  1  0
 14 12  1  0
 15 21  1  0
 16 14  1  0
 16 15  2  0
 17 16  1  0
 18 17  2  0
 18 19  1  0
 19 20  2  0
 20 15  1  0
 20 22  1  0
  1 23  1  0
  1 24  1  0
  2 25  1  0
  2 26  1  0
  4 27  1  0
  7 28  1  0
  9 29  1  0
  9 30  1  0
 13 31  1  0
 17 32  1  0
 18 33  1  0
 19 34  1  0
 21 35  1  0
 22 36  1  0
M  ISO  8  23   8  24   8  25   8  26   8  27  14  28  14  31   3  32  14
M  ISO  4  33  14  34  14  35   3  36   3
M  END
>  <minimizedAffinity>  (1) 
-5.09307575

>  <minimizedRMSD>  (1) 
6.25325632

$$$$
