
     RDKit          3D

 34 35  0  0  0  0  0  0  0  0999 V2000
   49.2040   33.7780   42.7280 C   0  0  0  0  0  0  0  0  0  0  0  0
   47.8370   34.1550   42.2260 C   0  0  0  0  0  0  0  0  0  0  0  0
   44.8720   35.0880   44.3490 C   0  0  0  0  0  0  0  0  0  0  0  0
   45.7870   35.0240   43.2740 C   0  0  0  0  0  0  0  0  0  0  0  0
   46.8980   34.2080   43.3560 C   0  0  0  0  0  0  0  0  0  0  0  0
   47.0610   33.4940   44.4840 N   0  0  0  0  0  0  0  0  0  0  0  0
   46.1810   33.5600   45.5080 C   0  0  0  0  0  0  0  0  0  0  0  0
   45.0940   34.3510   45.4440 N   0  0  0  0  0  0  0  0  0  0  0  0
   43.7370   35.9210   44.2660 N   0  0  0  0  0  0  0  0  0  0  0  0
   49.3560   32.4000   42.6910 O   0  0  0  0  0  0  0  0  0  0  0  0
   50.7890   30.4880   41.6490 O   0  0  0  0  0  0  0  0  0  0  0  0
   50.4190   31.9180   41.4520 P   0  0  2  0  0  0  0  0  0  0  0  0
   51.7640   32.9540   41.5420 O   0  0  0  0  0  0  0  0  0  0  0  0
   49.7050   32.2270   39.9590 O   0  0  0  0  0  0  0  0  0  0  0  0
   48.0010   33.5690   38.0290 Cl  0  0  0  0  0  0  0  0  0  0  0  0
   49.2460   32.3440   37.7470 C   0  0  0  0  0  0  0  0  0  0  0  0
   50.0360   31.7350   38.7320 C   0  0  0  0  0  0  0  0  0  0  0  0
   50.9560   30.8010   38.3160 C   0  0  0  0  0  0  0  0  0  0  0  0
   51.0950   30.4760   36.9830 C   0  0  0  0  0  0  0  0  0  0  0  0
   50.3290   31.0630   35.9960 C   0  0  0  0  0  0  0  0  0  0  0  0
   49.4010   32.0030   36.3970 C   0  0  0  0  0  0  0  0  0  0  0  0
   48.4500   32.7230   35.1150 Cl  0  0  0  0  0  0  0  0  0  0  0  0
   49.9687   34.2467   42.0911 H   0  0  0  0  0  0  0  0  0  0  0  0
   49.3187   34.1277   43.7646 H   0  0  0  0  0  0  0  0  0  0  0  0
   47.8835   35.1413   41.7412 H   0  0  0  0  0  0  0  0  0  0  0  0
   47.4936   33.4049   41.4984 H   0  0  0  0  0  0  0  0  0  0  0  0
   45.6138   35.6257   42.3696 H   0  0  0  0  0  0  0  0  0  0  0  0
   46.3566   32.9560   46.4104 H   0  0  0  0  0  0  0  0  0  0  0  0
   43.5730   36.4852   43.4200 H   0  0  0  0  0  0  0  0  0  0  0  0
   43.0721   35.9652   45.0514 H   0  0  0  0  0  0  0  0  0  0  0  0
   51.9859   33.1249   42.4915 H   0  0  0  0  0  0  0  0  0  0  0  0
   51.5936   30.3033   39.0615 H   0  0  0  0  0  0  0  0  0  0  0  0
   51.8429   29.7222   36.6960 H   0  0  0  0  0  0  0  0  0  0  0  0
   50.4526   30.7936   34.9367 H   0  0  0  0  0  0  0  0  0  0  0  0
  2  1  1  0
  2  5  1  0
  3  8  2  0
  4  5  2  0
  4  3  1  0
  5  6  1  0
  6  7  2  0
  8  7  1  0
  9  3  1  0
 10  1  1  0
 12 13  1  0
 12 11  2  0
 12 10  1  0
 14 12  1  0
 16 15  1  0
 16 17  2  0
 17 14  1  0
 18 17  1  0
 19 18  2  0
 20 21  2  0
 20 19  1  0
 21 16  1  0
 22 21  1  0
  1 23  1  0
  1 24  1  0
  2 25  1  0
  2 26  1  0
  4 27  1  0
  7 28  1  0
  9 29  1  0
  9 30  1  0
 13 31  1  0
 18 32  1  0
 19 33  1  0
 20 34  1  0
M  ISO  8  23   8  24   8  25   8  26   8  27  14  28  14  31   3  32  14
M  ISO  2  33  14  34  14
M  END
>  <minimizedAffinity>  (1) 
-4.90922546

>  <minimizedRMSD>  (1) 
0.668483555

$$$$
