
     RDKit          3D

 47 51  0  0  1  0  0  0  0  0999 V2000
   45.3160   33.1760   42.1810 C   0  0  0  0  0  0  0  0  0  0  0  0
   44.5390   32.0810   42.2540 N   0  0  0  0  0  0  0  0  0  0  0  0
   43.2660   32.3780   41.9600 C   0  0  0  0  0  0  0  0  0  0  0  0
   43.2410   33.7100   41.6920 N   0  0  0  0  0  0  0  0  0  0  0  0
   44.4600   34.2070   41.8190 N   0  0  0  0  0  0  0  0  0  0  0  0
   40.2200   33.0540   41.8780 O   0  0  0  0  0  0  0  0  0  0  0  0
   40.9100   33.6640   41.0060 C   0  0  0  0  0  0  0  0  0  0  0  0
   42.0870   34.5100   41.3180 C   0  0  2  0  0  0  0  0  0  0  0  0
   42.3410   35.2510   40.0110 C   0  0  0  0  0  0  0  0  0  0  0  0
   41.9430   34.1830   38.9860 C   0  0  0  0  0  0  0  0  0  0  0  0
   40.7210   33.6770   39.5790 N   0  0  0  0  0  0  0  0  0  0  0  0
   39.5270   33.2570   38.9220 C   0  0  0  0  0  0  0  0  0  0  0  0
   39.1330   34.2290   37.8010 C   0  0  0  0  0  0  0  0  0  0  0  0
   37.9490   33.4440   37.2310 C   0  0  0  0  0  0  0  0  0  0  0  0
   38.3570   31.9820   37.3550 C   0  0  0  0  0  0  0  0  0  0  0  0
   39.6740   31.9920   38.1320 C   0  0  0  0  0  0  0  0  0  0  0  0
   47.4330   33.3940   43.7230 C   0  0  1  0  0  0  0  0  0  0  0  0
   46.7560   33.3600   42.3980 C   0  0  2  0  0  0  0  0  0  0  0  0
   47.2120   34.6220   42.9340 C   0  0  0  0  0  0  0  0  0  0  0  0
   46.9250   31.9630   45.6920 C   0  0  0  0  0  0  0  0  0  0  0  0
   46.7010   33.1420   44.9830 C   0  0  0  0  0  0  0  0  0  0  0  0
   45.8000   34.0270   45.5240 C   0  0  0  0  0  0  0  0  0  0  0  0
   45.1990   33.6970   46.6960 N   0  0  0  0  0  0  0  0  0  0  0  0
   45.4260   32.5690   47.3520 C   0  0  0  0  0  0  0  0  0  0  0  0
   46.3090   31.6930   46.8290 N   0  0  0  0  0  0  0  0  0  0  0  0
   42.4131   31.6836   41.9397 H   0  0  0  0  0  0  0  0  0  0  0  0
   41.9109   35.1794   42.1729 H   0  0  0  0  0  0  0  0  0  0  0  0
   41.7095   36.1476   39.9258 H   0  0  0  0  0  0  0  0  0  0  0  0
   43.3678   35.6286   39.8964 H   0  0  0  0  0  0  0  0  0  0  0  0
   42.7080   33.3970   38.9030 H   0  0  0  0  0  0  0  0  0  0  0  0
   41.8282   34.5591   37.9587 H   0  0  0  0  0  0  0  0  0  0  0  0
   38.8159   33.1694   39.7567 H   0  0  0  0  0  0  0  0  0  0  0  0
   38.8301   35.2118   38.1913 H   0  0  0  0  0  0  0  0  0  0  0  0
   39.9288   34.4827   37.0852 H   0  0  0  0  0  0  0  0  0  0  0  0
   37.7781   33.7108   36.1776 H   0  0  0  0  0  0  0  0  0  0  0  0
   37.0115   33.6605   37.7641 H   0  0  0  0  0  0  0  0  0  0  0  0
   37.5911   31.4139   37.9033 H   0  0  0  0  0  0  0  0  0  0  0  0
   38.4665   31.5031   36.3708 H   0  0  0  0  0  0  0  0  0  0  0  0
   39.7632   31.1135   38.7880 H   0  0  0  0  0  0  0  0  0  0  0  0
   40.5743   31.9521   37.5012 H   0  0  0  0  0  0  0  0  0  0  0  0
   48.3003   32.8903   44.1747 H   0  0  0  0  0  0  0  0  0  0  0  0
   46.9250   32.7413   41.5044 H   0  0  0  0  0  0  0  0  0  0  0  0
   48.0675   35.1353   42.4708 H   0  0  0  0  0  0  0  0  0  0  0  0
   46.7330   35.5915   43.1356 H   0  0  0  0  0  0  0  0  0  0  0  0
   47.6408   31.2307   45.2901 H   0  0  0  0  0  0  0  0  0  0  0  0
   45.5715   34.9781   45.0208 H   0  0  0  0  0  0  0  0  0  0  0  0
   44.9084   32.3521   48.2981 H   0  0  0  0  0  0  0  0  0  0  0  0
  1  2  1  0
  1 18  1  0
  3  2  2  0
  4  5  1  0
  4  3  1  0
  5  1  2  0
  7  8  1  0
  7  6  2  0
  8  4  1  0
  9  8  1  0
 10 11  1  0
 10  9  1  0
 11  7  1  0
 12 11  1  0
 13 12  1  0
 14 15  1  0
 14 13  1  0
 15 16  1  0
 16 12  1  0
 17 21  1  0
 18 19  1  0
 18 17  1  0
 19 17  1  0
 20 25  2  0
 21 22  2  0
 21 20  1  0
 22 23  1  0
 23 24  2  0
 25 24  1  0
  3 26  1  0
  8 27  1  1
  9 28  1  0
  9 29  1  0
 10 30  1  0
 10 31  1  0
 12 32  1  0
 13 33  1  0
 13 34  1  0
 14 35  1  0
 14 36  1  0
 15 37  1  0
 15 38  1  0
 16 39  1  0
 16 40  1  0
 17 41  1  6
 18 42  1  6
 19 43  1  0
 19 44  1  0
 20 45  1  0
 22 46  1  0
 24 47  1  0
M  ISO  8  26  14  27  13  28  13  29  13  30  13  31  13  32  13  33  13
M  ISO  8  34  13  35  13  36  13  37  13  38  13  39  13  40  13  41  13
M  ISO  6  42  13  43  13  44  13  45  14  46  14  47  14
M  END
>  <minimizedAffinity>  (1) 
-6.0240283

>  <minimizedRMSD>  (1) 
1.24838901

$$$$
