
     RDKit          3D

 47 50  0  0  1  0  0  0  0  0999 V2000
   47.8530   32.9270   41.8890 C   0  0  1  0  0  0  0  0  0  0  0  0
   47.5790   32.2840   40.5860 C   0  0  0  0  0  0  0  0  0  0  0  0
   48.6450   32.8410   39.6340 C   0  0  0  0  0  0  0  0  0  0  0  0
   48.2560   34.2960   39.3910 C   0  0  0  0  0  0  0  0  0  0  0  0
   48.1640   35.0950   40.6490 C   0  0  0  0  0  0  0  0  0  0  0  0
   47.6360   34.4250   41.8520 C   0  0  1  0  0  0  0  0  0  0  0  0
   46.2320   34.7700   42.1350 C   0  0  0  0  0  0  0  0  0  0  0  0
   45.7260   35.2950   43.3320 C   0  0  0  0  0  0  0  0  0  0  0  0
   44.3510   35.5610   43.3340 C   0  0  0  0  0  0  0  0  0  0  0  0
   43.6190   35.2940   42.1940 C   0  0  0  0  0  0  0  0  0  0  0  0
   44.1410   34.7830   41.0480 C   0  0  0  0  0  0  0  0  0  0  0  0
   45.4700   34.5220   41.0330 N   0  0  0  0  0  0  0  0  0  0  0  0
   43.3130   34.5370   39.9130 N   0  0  0  0  0  0  0  0  0  0  0  0
   42.1110   35.2010   39.4510 C   0  0  0  0  0  0  0  0  0  0  0  0
   41.2960   34.2290   38.6810 C   0  0  0  0  0  0  0  0  0  0  0  0
   42.1310   32.9930   38.5880 C   0  0  0  0  0  0  0  0  0  0  0  0
   43.5080   33.5060   38.9150 C   0  0  0  0  0  0  0  0  0  0  0  0
   45.3930   30.9210   43.9370 C   0  0  0  0  0  0  0  0  0  0  0  0
   46.0860   31.4960   42.8720 C   0  0  0  0  0  0  0  0  0  0  0  0
   47.1690   32.3470   43.0380 C   0  0  0  0  0  0  0  0  0  0  0  0
   47.5270   32.5970   44.3090 N   0  0  0  0  0  0  0  0  0  0  0  0
   46.8640   32.0460   45.3540 C   0  0  0  0  0  0  0  0  0  0  0  0
   45.8280   31.2320   45.1890 N   0  0  0  0  0  0  0  0  0  0  0  0
   48.9213   32.7173   42.0461 H   0  0  0  0  0  0  0  0  0  0  0  0
   47.6681   31.1907   40.6685 H   0  0  0  0  0  0  0  0  0  0  0  0
   46.5592   32.4918   40.2300 H   0  0  0  0  0  0  0  0  0  0  0  0
   49.6415   32.7817   40.0961 H   0  0  0  0  0  0  0  0  0  0  0  0
   48.6919   32.2694   38.6953 H   0  0  0  0  0  0  0  0  0  0  0  0
   49.0123   34.7564   38.7383 H   0  0  0  0  0  0  0  0  0  0  0  0
   47.2580   34.2961   38.9283 H   0  0  0  0  0  0  0  0  0  0  0  0
   49.1780   35.4480   40.8884 H   0  0  0  0  0  0  0  0  0  0  0  0
   47.4284   35.8814   40.4245 H   0  0  0  0  0  0  0  0  0  0  0  0
   48.2506   34.8344   42.6673 H   0  0  0  0  0  0  0  0  0  0  0  0
   46.3638   35.4847   44.2079 H   0  0  0  0  0  0  0  0  0  0  0  0
   43.8626   35.9755   44.2283 H   0  0  0  0  0  0  0  0  0  0  0  0
   42.5405   35.5095   42.2148 H   0  0  0  0  0  0  0  0  0  0  0  0
   41.5346   35.5656   40.3141 H   0  0  0  0  0  0  0  0  0  0  0  0
   42.3773   36.0558   38.8120 H   0  0  0  0  0  0  0  0  0  0  0  0
   40.3528   34.0172   39.2059 H   0  0  0  0  0  0  0  0  0  0  0  0
   41.0293   34.6171   37.6869 H   0  0  0  0  0  0  0  0  0  0  0  0
   41.8047   32.2368   39.3172 H   0  0  0  0  0  0  0  0  0  0  0  0
   42.0693   32.4942   37.6095 H   0  0  0  0  0  0  0  0  0  0  0  0
   44.1340   32.6959   39.3172 H   0  0  0  0  0  0  0  0  0  0  0  0
   44.0198   33.8953   38.0225 H   0  0  0  0  0  0  0  0  0  0  0  0
   44.5373   30.2494   43.7735 H   0  0  0  0  0  0  0  0  0  0  0  0
   45.7572   31.2629   41.8485 H   0  0  0  0  0  0  0  0  0  0  0  0
   47.1958   32.2814   46.3760 H   0  0  0  0  0  0  0  0  0  0  0  0
  1 20  1  0
  2  1  1  0
  3  2  1  0
  4  3  1  0
  4  5  1  0
  5  6  1  0
  6  1  1  0
  6  7  1  0
  7  8  2  0
  8  9  1  0
 10  9  2  0
 11 10  1  0
 12 11  2  0
 12  7  1  0
 13 11  1  0
 14 13  1  0
 15 14  1  0
 16 15  1  0
 16 17  1  0
 17 13  1  0
 18 23  2  0
 19 20  2  0
 19 18  1  0
 20 21  1  0
 21 22  2  0
 23 22  1  0
  1 24  1  1
  2 25  1  0
  2 26  1  0
  3 27  1  0
  3 28  1  0
  4 29  1  0
  4 30  1  0
  5 31  1  0
  5 32  1  0
  6 33  1  1
  8 34  1  0
  9 35  1  0
 10 36  1  0
 14 37  1  0
 14 38  1  0
 15 39  1  0
 15 40  1  0
 16 41  1  0
 16 42  1  0
 17 43  1  0
 17 44  1  0
 18 45  1  0
 19 46  1  0
 22 47  1  0
M  ISO  8  24  13  25  13  26  13  27  13  28  13  29  13  30  13  31  13
M  ISO  8  32  13  33  13  34  14  35  14  36  14  37  13  38  13  39  13
M  ISO  8  40  13  41  13  42  13  43  13  44  13  45  14  46  14  47  14
M  END
>  <minimizedAffinity>  (1) 
-5.72406626

>  <minimizedRMSD>  (1) 
0.0591712669

$$$$
