
     RDKit          3D

 42 45  0  0  1  0  0  0  0  0999 V2000
   47.8530   32.9250   41.8720 C   0  0  1  0  0  0  0  0  0  0  0  0
   47.5670   32.2790   40.5760 C   0  0  0  0  0  0  0  0  0  0  0  0
   48.6080   32.8260   39.5940 C   0  0  0  0  0  0  0  0  0  0  0  0
   48.2430   34.2820   39.3620 C   0  0  0  0  0  0  0  0  0  0  0  0
   48.1600   35.0890   40.6250 C   0  0  0  0  0  0  0  0  0  0  0  0
   47.6380   34.4240   41.8290 C   0  0  1  0  0  0  0  0  0  0  0  0
   45.4060   30.9390   43.9480 C   0  0  0  0  0  0  0  0  0  0  0  0
   46.0920   31.5060   42.8750 C   0  0  0  0  0  0  0  0  0  0  0  0
   47.1770   32.3530   43.0280 C   0  0  0  0  0  0  0  0  0  0  0  0
   47.5450   32.6080   44.2950 N   0  0  0  0  0  0  0  0  0  0  0  0
   46.8870   32.0640   45.3480 C   0  0  0  0  0  0  0  0  0  0  0  0
   45.8480   31.2520   45.1930 N   0  0  0  0  0  0  0  0  0  0  0  0
   46.2380   34.7740   42.1210 C   0  0  0  0  0  0  0  0  0  0  0  0
   45.7430   35.3130   43.3150 C   0  0  0  0  0  0  0  0  0  0  0  0
   44.3730   35.5830   43.3350 C   0  0  0  0  0  0  0  0  0  0  0  0
   43.6270   35.3030   42.1970 C   0  0  0  0  0  0  0  0  0  0  0  0
   44.1350   34.7780   41.0490 C   0  0  0  0  0  0  0  0  0  0  0  0
   45.4690   34.5150   41.0290 N   0  0  0  0  0  0  0  0  0  0  0  0
   43.2580   34.5200   39.9050 C   0  0  0  0  0  0  0  0  0  0  0  0
   43.4290   33.6120   38.8800 C   0  0  0  0  0  0  0  0  0  0  0  0
   42.3390   33.7670   38.0770 N   0  0  0  0  0  0  0  0  0  0  0  0
   41.5140   34.7350   38.5770 C   0  0  0  0  0  0  0  0  0  0  0  0
   42.1100   35.1900   39.7180 N   0  0  0  0  0  0  0  0  0  0  0  0
   48.9218   32.7125   42.0224 H   0  0  0  0  0  0  0  0  0  0  0  0
   47.6614   31.1866   40.6642 H   0  0  0  0  0  0  0  0  0  0  0  0
   46.5422   32.4910   40.2371 H   0  0  0  0  0  0  0  0  0  0  0  0
   49.6171   32.7493   40.0252 H   0  0  0  0  0  0  0  0  0  0  0  0
   48.6106   32.2571   38.6525 H   0  0  0  0  0  0  0  0  0  0  0  0
   49.0066   34.7325   38.7109 H   0  0  0  0  0  0  0  0  0  0  0  0
   47.2428   34.2950   38.9044 H   0  0  0  0  0  0  0  0  0  0  0  0
   49.1762   35.4397   40.8580 H   0  0  0  0  0  0  0  0  0  0  0  0
   47.4260   35.8776   40.4030 H   0  0  0  0  0  0  0  0  0  0  0  0
   48.2594   34.8342   42.6387 H   0  0  0  0  0  0  0  0  0  0  0  0
   44.5470   30.2695   43.7933 H   0  0  0  0  0  0  0  0  0  0  0  0
   45.7545   31.2687   41.8553 H   0  0  0  0  0  0  0  0  0  0  0  0
   47.2258   32.3037   46.3667 H   0  0  0  0  0  0  0  0  0  0  0  0
   46.3915   35.5109   44.1812 H   0  0  0  0  0  0  0  0  0  0  0  0
   43.8958   36.0074   44.2307 H   0  0  0  0  0  0  0  0  0  0  0  0
   42.5492   35.5212   42.2260 H   0  0  0  0  0  0  0  0  0  0  0  0
   44.2664   32.9124   38.7409 H   0  0  0  0  0  0  0  0  0  0  0  0
   42.1620   33.2308   37.2156 H   0  0  0  0  0  0  0  0  0  0  0  0
   40.5616   35.0784   38.1468 H   0  0  0  0  0  0  0  0  0  0  0  0
  1  9  1  0
  2  1  1  0
  3  2  1  0
  4  3  1  0
  4  5  1  0
  5  6  1  0
  6  1  1  0
  6 13  1  0
  7 12  2  0
  8  9  2  0
  8  7  1  0
  9 10  1  0
 10 11  2  0
 12 11  1  0
 13 14  2  0
 14 15  1  0
 16 15  2  0
 17 16  1  0
 18 17  2  0
 18 13  1  0
 19 17  1  0
 20 19  2  0
 21 22  1  0
 21 20  1  0
 22 23  2  0
 23 19  1  0
  1 24  1  1
  2 25  1  0
  2 26  1  0
  3 27  1  0
  3 28  1  0
  4 29  1  0
  4 30  1  0
  5 31  1  0
  5 32  1  0
  6 33  1  1
  7 34  1  0
  8 35  1  0
 11 36  1  0
 14 37  1  0
 15 38  1  0
 16 39  1  0
 20 40  1  0
 21 41  1  0
 22 42  1  0
M  ISO  8  24  13  25  13  26  13  27  13  28  13  29  13  30  13  31  13
M  ISO  8  32  13  33  13  34  14  35  14  36  14  37  14  38  14  39  14
M  ISO  3  40  14  41   9  42  14
M  END
>  <minimizedAffinity>  (1) 
-5.599154

>  <minimizedRMSD>  (1) 
0.147395864

$$$$
