
     RDKit          3D

 38 40  0  0  1  0  0  0  0  0999 V2000
   47.8800   32.9550   41.9320 C   0  0  1  0  0  0  0  0  0  0  0  0
   47.6220   32.2680   40.6500 C   0  0  0  0  0  0  0  0  0  0  0  0
   48.6810   32.7940   39.6740 C   0  0  0  0  0  0  0  0  0  0  0  0
   48.3160   34.2400   39.3950 C   0  0  0  0  0  0  0  0  0  0  0  0
   48.1810   35.0850   40.6210 C   0  0  0  0  0  0  0  0  0  0  0  0
   47.6450   34.4480   41.8370 C   0  0  1  0  0  0  0  0  0  0  0  0
   45.4480   30.9670   44.0250 C   0  0  0  0  0  0  0  0  0  0  0  0
   46.1450   31.5140   42.9490 C   0  0  0  0  0  0  0  0  0  0  0  0
   47.1950   32.4100   43.0970 C   0  0  0  0  0  0  0  0  0  0  0  0
   47.5200   32.7380   44.3590 N   0  0  0  0  0  0  0  0  0  0  0  0
   46.8480   32.2120   45.4160 C   0  0  0  0  0  0  0  0  0  0  0  0
   45.8460   31.3570   45.2740 N   0  0  0  0  0  0  0  0  0  0  0  0
   46.2380   34.7890   42.0970 C   0  0  0  0  0  0  0  0  0  0  0  0
   45.7340   35.3940   43.2600 C   0  0  0  0  0  0  0  0  0  0  0  0
   44.3510   35.6370   43.2480 C   0  0  0  0  0  0  0  0  0  0  0  0
   43.6170   35.2720   42.1270 C   0  0  0  0  0  0  0  0  0  0  0  0
   44.1460   34.6840   41.0150 C   0  0  0  0  0  0  0  0  0  0  0  0
   45.4840   34.4420   41.0120 N   0  0  0  0  0  0  0  0  0  0  0  0
   43.2320   34.3490   39.8910 C   0  0  0  0  0  0  0  0  0  0  0  0
   42.2440   33.5320   40.3980 F   0  0  0  0  0  0  0  0  0  0  0  0
   42.6700   35.5520   39.4530 F   0  0  0  0  0  0  0  0  0  0  0  0
   43.9600   33.7600   38.8880 F   0  0  0  0  0  0  0  0  0  0  0  0
   48.9481   32.7590   42.1071 H   0  0  0  0  0  0  0  0  0  0  0  0
   47.7207   31.1793   40.7722 H   0  0  0  0  0  0  0  0  0  0  0  0
   46.6027   32.4618   40.2846 H   0  0  0  0  0  0  0  0  0  0  0  0
   49.6814   32.7336   40.1274 H   0  0  0  0  0  0  0  0  0  0  0  0
   48.7044   32.2000   38.7485 H   0  0  0  0  0  0  0  0  0  0  0  0
   49.0999   34.6772   38.7591 H   0  0  0  0  0  0  0  0  0  0  0  0
   47.3296   34.2290   38.9082 H   0  0  0  0  0  0  0  0  0  0  0  0
   49.1817   35.4705   40.8660 H   0  0  0  0  0  0  0  0  0  0  0  0
   47.4329   35.8457   40.3531 H   0  0  0  0  0  0  0  0  0  0  0  0
   48.2477   34.8911   42.6435 H   0  0  0  0  0  0  0  0  0  0  0  0
   44.6202   30.2579   43.8772 H   0  0  0  0  0  0  0  0  0  0  0  0
   45.8481   31.2209   41.9312 H   0  0  0  0  0  0  0  0  0  0  0  0
   47.1483   32.5083   46.4319 H   0  0  0  0  0  0  0  0  0  0  0  0
   46.3739   35.6574   44.1151 H   0  0  0  0  0  0  0  0  0  0  0  0
   43.8578   36.1080   44.1111 H   0  0  0  0  0  0  0  0  0  0  0  0
   42.5351   35.4705   42.1361 H   0  0  0  0  0  0  0  0  0  0  0  0
  1  9  1  0
  2  1  1  0
  3  2  1  0
  4  3  1  0
  4  5  1  0
  5  6  1  0
  6  1  1  0
  6 13  1  0
  7 12  2  0
  8  9  2  0
  8  7  1  0
  9 10  1  0
 10 11  2  0
 12 11  1  0
 13 14  2  0
 15 14  1  0
 16 15  2  0
 17 16  1  0
 18 17  2  0
 18 13  1  0
 19 20  1  0
 19 17  1  0
 21 19  1  0
 22 19  1  0
  1 23  1  1
  2 24  1  0
  2 25  1  0
  3 26  1  0
  3 27  1  0
  4 28  1  0
  4 29  1  0
  5 30  1  0
  5 31  1  0
  6 32  1  1
  7 33  1  0
  8 34  1  0
 11 35  1  0
 14 36  1  0
 15 37  1  0
 16 38  1  0
M  ISO  8  23  13  24  13  25  13  26  13  27  13  28  13  29  13  30  13
M  ISO  8  31  13  32  13  33  14  34  14  35  14  36  14  37  14  38  14
M  END
>  <minimizedAffinity>  (1) 
-5.18977785

>  <minimizedRMSD>  (1) 
0.0871853977

$$$$
