
     RDKit          3D

 37 39  0  0  1  0  0  0  0  0999 V2000
   47.8740   32.9240   41.9220 C   0  0  1  0  0  0  0  0  0  0  0  0
   47.5990   32.3020   40.6100 C   0  0  0  0  0  0  0  0  0  0  0  0
   48.6660   32.8550   39.6630 C   0  0  0  0  0  0  0  0  0  0  0  0
   48.3290   34.3200   39.4470 C   0  0  0  0  0  0  0  0  0  0  0  0
   48.2170   35.1080   40.7180 C   0  0  0  0  0  0  0  0  0  0  0  0
   47.6780   34.4260   41.8990 C   0  0  1  0  0  0  0  0  0  0  0  0
   46.2760   34.7860   42.1800 C   0  0  0  0  0  0  0  0  0  0  0  0
   45.7460   35.2430   43.3900 C   0  0  0  0  0  0  0  0  0  0  0  0
   44.3930   35.5390   43.4030 C   0  0  0  0  0  0  0  0  0  0  0  0
   43.6730   35.3620   42.2300 C   0  0  0  0  0  0  0  0  0  0  0  0
   44.2050   34.9130   41.0490 C   0  0  0  0  0  0  0  0  0  0  0  0
   45.5360   34.6260   41.0510 N   0  0  0  0  0  0  0  0  0  0  0  0
   43.3640   34.7690   39.9020 N   0  0  0  0  0  0  0  0  0  0  0  0
   45.3620   30.9380   43.9260 C   0  0  0  0  0  0  0  0  0  0  0  0
   46.0720   31.5170   42.8730 C   0  0  0  0  0  0  0  0  0  0  0  0
   47.1730   32.3380   43.0600 C   0  0  0  0  0  0  0  0  0  0  0  0
   47.5310   32.5550   44.3360 N   0  0  0  0  0  0  0  0  0  0  0  0
   46.8500   31.9990   45.3680 C   0  0  0  0  0  0  0  0  0  0  0  0
   45.7930   31.2100   45.1790 N   0  0  0  0  0  0  0  0  0  0  0  0
   48.9379   32.6980   42.0867 H   0  0  0  0  0  0  0  0  0  0  0  0
   47.6774   31.2070   40.6798 H   0  0  0  0  0  0  0  0  0  0  0  0
   46.5825   32.5289   40.2561 H   0  0  0  0  0  0  0  0  0  0  0  0
   49.6639   32.7567   40.1152 H   0  0  0  0  0  0  0  0  0  0  0  0
   48.6789   32.3040   38.7111 H   0  0  0  0  0  0  0  0  0  0  0  0
   49.1191   34.7702   38.8281 H   0  0  0  0  0  0  0  0  0  0  0  0
   47.3430   34.3541   38.9604 H   0  0  0  0  0  0  0  0  0  0  0  0
   49.2264   35.4614   40.9752 H   0  0  0  0  0  0  0  0  0  0  0  0
   47.4823   35.8950   40.4927 H   0  0  0  0  0  0  0  0  0  0  0  0
   48.2996   34.8125   42.7201 H   0  0  0  0  0  0  0  0  0  0  0  0
   46.3719   35.3616   44.2867 H   0  0  0  0  0  0  0  0  0  0  0  0
   43.9029   35.9042   44.3176 H   0  0  0  0  0  0  0  0  0  0  0  0
   42.5990   35.5988   42.2492 H   0  0  0  0  0  0  0  0  0  0  0  0
   42.3629   35.0031   39.9648 H   0  0  0  0  0  0  0  0  0  0  0  0
   43.7591   34.4311   39.0128 H   0  0  0  0  0  0  0  0  0  0  0  0
   44.4917   30.2901   43.7452 H   0  0  0  0  0  0  0  0  0  0  0  0
   45.7415   31.3117   41.8441 H   0  0  0  0  0  0  0  0  0  0  0  0
   47.1813   32.2062   46.3963 H   0  0  0  0  0  0  0  0  0  0  0  0
  1 16  1  0
  2  1  1  0
  3  2  1  0
  4  3  1  0
  4  5  1  0
  5  6  1  0
  6  1  1  0
  6  7  1  0
  7  8  2  0
  8  9  1  0
 10  9  2  0
 11 12  2  0
 11 10  1  0
 12  7  1  0
 13 11  1  0
 14 19  2  0
 15 16  2  0
 15 14  1  0
 16 17  1  0
 17 18  2  0
 19 18  1  0
  1 20  1  1
  2 21  1  0
  2 22  1  0
  3 23  1  0
  3 24  1  0
  4 25  1  0
  4 26  1  0
  5 27  1  0
  5 28  1  0
  6 29  1  1
  8 30  1  0
  9 31  1  0
 10 32  1  0
 13 33  1  0
 13 34  1  0
 14 35  1  0
 15 36  1  0
 18 37  1  0
M  ISO  8  20  13  21  13  22  13  23  13  24  13  25  13  26  13  27  13
M  ISO  8  28  13  29  13  30  14  31  14  32  14  35  14  36  14  37  14
M  END
>  <minimizedAffinity>  (1) 
-4.9065876

>  <minimizedRMSD>  (1) 
0.105217025

$$$$
