
     RDKit          3D

 38 40  0  0  1  0  0  0  0  0999 V2000
   47.8620   32.9330   41.8580 C   0  0  1  0  0  0  0  0  0  0  0  0
   47.5640   32.2870   40.5640 C   0  0  0  0  0  0  0  0  0  0  0  0
   48.6040   32.8300   39.5790 C   0  0  0  0  0  0  0  0  0  0  0  0
   48.2490   34.2840   39.3480 C   0  0  0  0  0  0  0  0  0  0  0  0
   48.1750   35.0970   40.6080 C   0  0  0  0  0  0  0  0  0  0  0  0
   47.6600   34.4340   41.8130 C   0  0  1  0  0  0  0  0  0  0  0  0
   45.4110   30.9530   43.9440 C   0  0  0  0  0  0  0  0  0  0  0  0
   46.1000   31.5200   42.8700 C   0  0  0  0  0  0  0  0  0  0  0  0
   47.1890   32.3640   43.0190 C   0  0  0  0  0  0  0  0  0  0  0  0
   47.5620   32.6200   44.2840 N   0  0  0  0  0  0  0  0  0  0  0  0
   46.9080   32.0800   45.3400 C   0  0  0  0  0  0  0  0  0  0  0  0
   45.8630   31.2710   45.1890 N   0  0  0  0  0  0  0  0  0  0  0  0
   46.2650   34.7930   42.1150 C   0  0  0  0  0  0  0  0  0  0  0  0
   45.7820   35.3630   43.2990 C   0  0  0  0  0  0  0  0  0  0  0  0
   44.4160   35.6340   43.3390 C   0  0  0  0  0  0  0  0  0  0  0  0
   43.6560   35.3260   42.2280 C   0  0  0  0  0  0  0  0  0  0  0  0
   44.1420   34.7680   41.0740 C   0  0  0  0  0  0  0  0  0  0  0  0
   45.4760   34.5060   41.0430 N   0  0  0  0  0  0  0  0  0  0  0  0
   43.2190   34.4810   39.9390 C   0  0  0  0  0  0  0  0  0  0  0  0
   48.9301   32.7148   42.0048 H   0  0  0  0  0  0  0  0  0  0  0  0
   47.6530   31.1941   40.6517 H   0  0  0  0  0  0  0  0  0  0  0  0
   46.5382   32.5020   40.2301 H   0  0  0  0  0  0  0  0  0  0  0  0
   49.6140   32.7475   40.0070 H   0  0  0  0  0  0  0  0  0  0  0  0
   48.5988   32.2618   38.6371 H   0  0  0  0  0  0  0  0  0  0  0  0
   49.0134   34.7279   38.6932 H   0  0  0  0  0  0  0  0  0  0  0  0
   47.2462   34.3012   38.8962 H   0  0  0  0  0  0  0  0  0  0  0  0
   49.1928   35.4476   40.8342 H   0  0  0  0  0  0  0  0  0  0  0  0
   47.4429   35.8882   40.3887 H   0  0  0  0  0  0  0  0  0  0  0  0
   48.2952   34.8383   42.6149 H   0  0  0  0  0  0  0  0  0  0  0  0
   44.5498   30.2856   43.7929 H   0  0  0  0  0  0  0  0  0  0  0  0
   45.7601   31.2840   41.8508 H   0  0  0  0  0  0  0  0  0  0  0  0
   47.2527   32.3185   46.3570 H   0  0  0  0  0  0  0  0  0  0  0  0
   46.4435   35.5843   44.1495 H   0  0  0  0  0  0  0  0  0  0  0  0
   43.9551   36.0815   44.2319 H   0  0  0  0  0  0  0  0  0  0  0  0
   42.5789   35.5450   42.2723 H   0  0  0  0  0  0  0  0  0  0  0  0
   42.2380   34.1760   40.3323 H   0  0  0  0  0  0  0  0  0  0  0  0
   43.1023   35.3853   39.3236 H   0  0  0  0  0  0  0  0  0  0  0  0
   43.6356   33.6700   39.3236 H   0  0  0  0  0  0  0  0  0  0  0  0
  1  9  1  0
  2  1  1  0
  3  2  1  0
  4  3  1  0
  4  5  1  0
  5  6  1  0
  6  1  1  0
  6 13  1  0
  7 12  2  0
  8  9  2  0
  8  7  1  0
  9 10  1  0
 10 11  2  0
 12 11  1  0
 13 14  2  0
 14 15  1  0
 16 15  2  0
 17 16  1  0
 18 17  2  0
 18 13  1  0
 19 17  1  0
  1 20  1  1
  2 21  1  0
  2 22  1  0
  3 23  1  0
  3 24  1  0
  4 25  1  0
  4 26  1  0
  5 27  1  0
  5 28  1  0
  6 29  1  1
  7 30  1  0
  8 31  1  0
 11 32  1  0
 14 33  1  0
 15 34  1  0
 16 35  1  0
 19 36  1  0
 19 37  1  0
 19 38  1  0
M  ISO  8  20  13  21  13  22  13  23  13  24  13  25  13  26  13  27  13
M  ISO  8  28  13  29  13  30  14  31  14  32  14  33  14  34  14  35  14
M  ISO  3  36   8  37   8  38   8
M  END
>  <minimizedAffinity>  (1) 
-4.84015942

>  <minimizedRMSD>  (1) 
0.0596061125

$$$$
