
     RDKit          3D

 36 38  0  0  1  0  0  0  0  0999 V2000
   47.8590   32.9300   41.8560 C   0  0  1  0  0  0  0  0  0  0  0  0
   47.5550   32.2800   40.5640 C   0  0  0  0  0  0  0  0  0  0  0  0
   48.5920   32.8180   39.5770 C   0  0  0  0  0  0  0  0  0  0  0  0
   48.2530   34.2710   39.3470 C   0  0  0  0  0  0  0  0  0  0  0  0
   48.1630   35.0920   40.5990 C   0  0  0  0  0  0  0  0  0  0  0  0
   47.6490   34.4300   41.8040 C   0  0  1  0  0  0  0  0  0  0  0  0
   45.4270   30.9540   43.9630 C   0  0  0  0  0  0  0  0  0  0  0  0
   46.1080   31.5150   42.8840 C   0  0  0  0  0  0  0  0  0  0  0  0
   47.1910   32.3670   43.0230 C   0  0  0  0  0  0  0  0  0  0  0  0
   47.5620   32.6320   44.2850 N   0  0  0  0  0  0  0  0  0  0  0  0
   46.9110   32.0970   45.3480 C   0  0  0  0  0  0  0  0  0  0  0  0
   45.8750   31.2810   45.2090 N   0  0  0  0  0  0  0  0  0  0  0  0
   46.2540   34.7880   42.1100 C   0  0  0  0  0  0  0  0  0  0  0  0
   45.7820   35.3650   43.2990 C   0  0  0  0  0  0  0  0  0  0  0  0
   44.4150   35.6300   43.3300 C   0  0  0  0  0  0  0  0  0  0  0  0
   43.6400   35.3160   42.2190 C   0  0  0  0  0  0  0  0  0  0  0  0
   44.1360   34.7540   41.0770 C   0  0  0  0  0  0  0  0  0  0  0  0
   45.4690   34.4940   41.0440 N   0  0  0  0  0  0  0  0  0  0  0  0
   42.9970   34.4170   39.7490 S   0  0  0  0  0  0  0  0  0  0  0  0
   48.9275   32.7120   41.9998 H   0  0  0  0  0  0  0  0  0  0  0  0
   47.6421   31.1872   40.6544 H   0  0  0  0  0  0  0  0  0  0  0  0
   46.5285   32.4952   40.2324 H   0  0  0  0  0  0  0  0  0  0  0  0
   49.6030   32.7263   40.0007 H   0  0  0  0  0  0  0  0  0  0  0  0
   48.5743   32.2518   38.6341 H   0  0  0  0  0  0  0  0  0  0  0  0
   49.0311   34.7082   38.7041 H   0  0  0  0  0  0  0  0  0  0  0  0
   47.2545   34.2912   38.8859 H   0  0  0  0  0  0  0  0  0  0  0  0
   49.1753   35.4560   40.8286 H   0  0  0  0  0  0  0  0  0  0  0  0
   47.4244   35.8744   40.3705 H   0  0  0  0  0  0  0  0  0  0  0  0
   48.2833   34.8387   42.6044 H   0  0  0  0  0  0  0  0  0  0  0  0
   44.5699   30.2803   43.8167 H   0  0  0  0  0  0  0  0  0  0  0  0
   45.7671   31.2678   41.8678 H   0  0  0  0  0  0  0  0  0  0  0  0
   47.2549   32.3492   46.3620 H   0  0  0  0  0  0  0  0  0  0  0  0
   46.4450   35.5920   44.1469 H   0  0  0  0  0  0  0  0  0  0  0  0
   43.9547   36.0815   44.2212 H   0  0  0  0  0  0  0  0  0  0  0  0
   42.5625   35.5333   42.2623 H   0  0  0  0  0  0  0  0  0  0  0  0
   41.7819   34.0575   40.2697 H   0  0  0  0  0  0  0  0  0  0  0  0
  1  9  1  0
  2  1  1  0
  3  2  1  0
  4  3  1  0
  4  5  1  0
  5  6  1  0
  6  1  1  0
  6 13  1  0
  7 12  2  0
  8  9  2  0
  8  7  1  0
  9 10  1  0
 10 11  2  0
 12 11  1  0
 13 14  2  0
 14 15  1  0
 16 15  2  0
 17 16  1  0
 18 17  2  0
 18 13  1  0
 19 17  1  0
  1 20  1  1
  2 21  1  0
  2 22  1  0
  3 23  1  0
  3 24  1  0
  4 25  1  0
  4 26  1  0
  5 27  1  0
  5 28  1  0
  6 29  1  1
  7 30  1  0
  8 31  1  0
 11 32  1  0
 14 33  1  0
 15 34  1  0
 16 35  1  0
 19 36  1  0
M  ISO  8  20  13  21  13  22  13  23  13  24  13  25  13  26  13  27  13
M  ISO  8  28  13  29  13  30  14  31  14  32  14  33  14  34  14  35  14
M  ISO  1  36  11
M  END
>  <minimizedAffinity>  (1) 
-4.77755404

>  <minimizedRMSD>  (1) 
0.0588724464

$$$$
