
     RDKit          3D

 36 38  0  0  1  0  0  0  0  0999 V2000
   47.8650   32.9310   41.8780 C   0  0  1  0  0  0  0  0  0  0  0  0
   47.5760   32.2860   40.5800 C   0  0  0  0  0  0  0  0  0  0  0  0
   48.6330   32.8180   39.6080 C   0  0  0  0  0  0  0  0  0  0  0  0
   48.2840   34.2830   39.3730 C   0  0  0  0  0  0  0  0  0  0  0  0
   48.1720   35.0930   40.6190 C   0  0  0  0  0  0  0  0  0  0  0  0
   47.6540   34.4290   41.8280 C   0  0  1  0  0  0  0  0  0  0  0  0
   45.4230   30.9450   43.9580 C   0  0  0  0  0  0  0  0  0  0  0  0
   46.1100   31.5080   42.8830 C   0  0  0  0  0  0  0  0  0  0  0  0
   47.1910   32.3640   43.0390 C   0  0  0  0  0  0  0  0  0  0  0  0
   47.5590   32.6340   44.3010 N   0  0  0  0  0  0  0  0  0  0  0  0
   46.9000   32.0950   45.3590 C   0  0  0  0  0  0  0  0  0  0  0  0
   45.8660   31.2750   45.2110 N   0  0  0  0  0  0  0  0  0  0  0  0
   46.2560   34.7850   42.1210 C   0  0  0  0  0  0  0  0  0  0  0  0
   45.7780   35.3580   43.3050 C   0  0  0  0  0  0  0  0  0  0  0  0
   44.4060   35.6260   43.3310 C   0  0  0  0  0  0  0  0  0  0  0  0
   43.6460   35.3130   42.2100 C   0  0  0  0  0  0  0  0  0  0  0  0
   44.1480   34.7540   41.0680 C   0  0  0  0  0  0  0  0  0  0  0  0
   45.4780   34.4930   41.0420 N   0  0  0  0  0  0  0  0  0  0  0  0
   43.2730   34.4930   40.0220 O   0  0  0  0  0  0  0  0  0  0  0  0
   48.9319   32.7113   42.0313 H   0  0  0  0  0  0  0  0  0  0  0  0
   47.6533   31.1924   40.6696 H   0  0  0  0  0  0  0  0  0  0  0  0
   46.5564   32.5104   40.2334 H   0  0  0  0  0  0  0  0  0  0  0  0
   49.6370   32.7297   40.0486 H   0  0  0  0  0  0  0  0  0  0  0  0
   48.6399   32.2483   38.6671 H   0  0  0  0  0  0  0  0  0  0  0  0
   49.0681   34.7273   38.7423 H   0  0  0  0  0  0  0  0  0  0  0  0
   47.2928   34.2987   38.8962 H   0  0  0  0  0  0  0  0  0  0  0  0
   49.1780   35.4688   40.8571 H   0  0  0  0  0  0  0  0  0  0  0  0
   47.4209   35.8610   40.3825 H   0  0  0  0  0  0  0  0  0  0  0  0
   48.2823   34.8360   42.6340 H   0  0  0  0  0  0  0  0  0  0  0  0
   44.5680   30.2696   43.8070 H   0  0  0  0  0  0  0  0  0  0  0  0
   45.7794   31.2619   41.8631 H   0  0  0  0  0  0  0  0  0  0  0  0
   47.2350   32.3469   46.3760 H   0  0  0  0  0  0  0  0  0  0  0  0
   46.4367   35.5822   44.1570 H   0  0  0  0  0  0  0  0  0  0  0  0
   43.9380   36.0749   44.2195 H   0  0  0  0  0  0  0  0  0  0  0  0
   42.5681   35.5297   42.2442 H   0  0  0  0  0  0  0  0  0  0  0  0
   43.6103   34.0885   39.1837 H   0  0  0  0  0  0  0  0  0  0  0  0
  1  9  1  0
  2  1  1  0
  3  2  1  0
  4  3  1  0
  4  5  1  0
  5  6  1  0
  6  1  1  0
  6 13  1  0
  7 12  2  0
  8  9  2  0
  8  7  1  0
  9 10  1  0
 10 11  2  0
 12 11  1  0
 13 14  2  0
 14 15  1  0
 16 15  2  0
 17 16  1  0
 18 17  2  0
 18 13  1  0
 19 17  1  0
  1 20  1  1
  2 21  1  0
  2 22  1  0
  3 23  1  0
  3 24  1  0
  4 25  1  0
  4 26  1  0
  5 27  1  0
  5 28  1  0
  6 29  1  1
  7 30  1  0
  8 31  1  0
 11 32  1  0
 14 33  1  0
 15 34  1  0
 16 35  1  0
 19 36  1  0
M  ISO  8  20  13  21  13  22  13  23  13  24  13  25  13  26  13  27  13
M  ISO  8  28  13  29  13  30  14  31  14  32  14  33  14  34  14  35  14
M  ISO  1  36   3
M  END
>  <minimizedAffinity>  (1) 
-4.76575899

>  <minimizedRMSD>  (1) 
0.040621575

$$$$
