
     RDKit          3D

 51 54  0  0  1  0  0  0  0  0999 V2000
   47.6330   32.5700   41.2960 C   0  0  1  0  0  0  0  0  0  0  0  0
   47.0270   31.9610   40.1120 C   0  0  0  0  0  0  0  0  0  0  0  0
   47.9480   32.3080   38.9440 C   0  0  0  0  0  0  0  0  0  0  0  0
   47.7930   33.7970   38.7030 C   0  0  0  0  0  0  0  0  0  0  0  0
   48.0440   34.6500   39.9150 C   0  0  0  0  0  0  0  0  0  0  0  0
   47.6490   34.1010   41.2200 C   0  0  1  0  0  0  0  0  0  0  0  0
   45.3630   30.9930   43.8740 C   0  0  0  0  0  0  0  0  0  0  0  0
   45.9330   31.4180   42.6680 C   0  0  0  0  0  0  0  0  0  0  0  0
   47.1120   32.1620   42.5840 C   0  0  0  0  0  0  0  0  0  0  0  0
   47.6840   32.4550   43.7520 N   0  0  0  0  0  0  0  0  0  0  0  0
   47.1440   32.0500   44.9310 C   0  0  0  0  0  0  0  0  0  0  0  0
   46.0130   31.3370   45.0070 N   0  0  0  0  0  0  0  0  0  0  0  0
   46.3990   34.6790   41.7160 C   0  0  0  0  0  0  0  0  0  0  0  0
   46.2620   35.4810   42.8590 C   0  0  0  0  0  0  0  0  0  0  0  0
   44.9780   35.9340   43.1340 C   0  0  0  0  0  0  0  0  0  0  0  0
   43.9570   35.5690   42.2790 C   0  0  0  0  0  0  0  0  0  0  0  0
   44.1140   34.7750   41.1540 C   0  0  0  0  0  0  0  0  0  0  0  0
   45.3740   34.3450   40.9060 N   0  0  0  0  0  0  0  0  0  0  0  0
   42.9680   34.4480   40.3160 C   0  0  0  0  0  0  0  0  0  0  0  0
   42.6520   35.2390   39.3900 O   0  0  0  0  0  0  0  0  0  0  0  0
   42.0630   33.3510   40.3130 N   0  0  0  0  0  0  0  0  0  0  0  0
   42.5050   32.2150   41.0900 C   0  0  0  0  0  0  0  0  0  0  0  0
   41.3600   31.7700   41.9770 C   0  0  0  0  0  0  0  0  0  0  0  0
   40.3190   32.7590   42.0560 N   0  0  0  0  0  0  0  0  0  0  0  0
   39.6980   33.0020   40.7660 C   0  0  0  0  0  0  0  0  0  0  0  0
   40.7600   33.0400   39.7170 C   0  0  0  0  0  0  0  0  0  0  0  0
   48.6558   32.1673   41.2551 H   0  0  0  0  0  0  0  0  0  0  0  0
   46.9598   30.8700   40.2350 H   0  0  0  0  0  0  0  0  0  0  0  0
   46.0055   32.3332   39.9448 H   0  0  0  0  0  0  0  0  0  0  0  0
   48.9914   32.0706   39.1990 H   0  0  0  0  0  0  0  0  0  0  0  0
   47.6870   31.7297   38.0454 H   0  0  0  0  0  0  0  0  0  0  0  0
   48.5047   34.0948   37.9189 H   0  0  0  0  0  0  0  0  0  0  0  0
   46.7444   33.9615   38.4141 H   0  0  0  0  0  0  0  0  0  0  0  0
   49.1238   34.8556   39.9563 H   0  0  0  0  0  0  0  0  0  0  0  0
   47.4041   35.5338   39.7754 H   0  0  0  0  0  0  0  0  0  0  0  0
   48.4572   34.4135   41.8976 H   0  0  0  0  0  0  0  0  0  0  0  0
   44.4318   30.4079   43.8977 H   0  0  0  0  0  0  0  0  0  0  0  0
   45.4222   31.1502   41.7314 H   0  0  0  0  0  0  0  0  0  0  0  0
   47.6588   32.3198   45.8649 H   0  0  0  0  0  0  0  0  0  0  0  0
   47.1197   35.7357   43.4988 H   0  0  0  0  0  0  0  0  0  0  0  0
   44.7795   36.5677   44.0110 H   0  0  0  0  0  0  0  0  0  0  0  0
   42.9452   35.9352   42.5075 H   0  0  0  0  0  0  0  0  0  0  0  0
   42.7948   31.3944   40.4172 H   0  0  0  0  0  0  0  0  0  0  0  0
   43.3746   32.4916   41.7043 H   0  0  0  0  0  0  0  0  0  0  0  0
   40.9358   30.8408   41.5687 H   0  0  0  0  0  0  0  0  0  0  0  0
   41.7579   31.6163   42.9909 H   0  0  0  0  0  0  0  0  0  0  0  0
   39.5985   32.4311   42.7150 H   0  0  0  0  0  0  0  0  0  0  0  0
   38.9857   32.1944   40.5412 H   0  0  0  0  0  0  0  0  0  0  0  0
   39.1600   33.9612   40.7863 H   0  0  0  0  0  0  0  0  0  0  0  0
   40.5081   33.8123   38.9753 H   0  0  0  0  0  0  0  0  0  0  0  0
   40.8172   32.0532   39.2343 H   0  0  0  0  0  0  0  0  0  0  0  0
  1  9  1  0
  2  1  1  0
  3  2  1  0
  4  3  1  0
  4  5  1  0
  5  6  1  0
  6  1  1  0
  6 13  1  0
  7 12  2  0
  8  7  1  0
  9  8  2  0
  9 10  1  0
 10 11  2  0
 11 12  1  0
 13 14  2  0
 14 15  1  0
 16 15  2  0
 17 16  1  0
 18 17  2  0
 18 13  1  0
 19 17  1  0
 20 19  2  0
 21 19  1  0
 21 22  1  0
 22 23  1  0
 23 24  1  0
 25 24  1  0
 26 21  1  0
 26 25  1  0
  1 27  1  1
  2 28  1  0
  2 29  1  0
  3 30  1  0
  3 31  1  0
  4 32  1  0
  4 33  1  0
  5 34  1  0
  5 35  1  0
  6 36  1  1
  7 37  1  0
  8 38  1  0
 11 39  1  0
 14 40  1  0
 15 41  1  0
 16 42  1  0
 22 43  1  0
 22 44  1  0
 23 45  1  0
 23 46  1  0
 24 47  1  0
 25 48  1  0
 25 49  1  0
 26 50  1  0
 26 51  1  0
M  ISO  8  27  13  28  13  29  13  30  13  31  13  32  13  33  13  34  13
M  ISO  8  35  13  36  13  37  14  38  14  39  14  40  14  41  14  42  14
M  ISO  8  43  13  44  13  45  13  46  13  47   5  48  13  49  13  50  13
M  ISO  1  51  13
M  END
>  <minimizedAffinity>  (1) 
-5.92907476

>  <minimizedRMSD>  (1) 
1.44287193

$$$$
