
     RDKit          3D

 39 41  0  0  1  0  0  0  0  0999 V2000
   47.8610   32.9060   41.8460 C   0  0  1  0  0  0  0  0  0  0  0  0
   47.5640   32.2730   40.5620 C   0  0  0  0  0  0  0  0  0  0  0  0
   48.6020   32.8100   39.5760 C   0  0  0  0  0  0  0  0  0  0  0  0
   48.2540   34.2750   39.3410 C   0  0  0  0  0  0  0  0  0  0  0  0
   48.1570   35.0890   40.5960 C   0  0  0  0  0  0  0  0  0  0  0  0
   47.6470   34.4220   41.8040 C   0  0  1  0  0  0  0  0  0  0  0  0
   45.4210   30.9420   43.9580 C   0  0  0  0  0  0  0  0  0  0  0  0
   46.1130   31.5030   42.8770 C   0  0  0  0  0  0  0  0  0  0  0  0
   47.2070   32.3610   43.0190 C   0  0  0  0  0  0  0  0  0  0  0  0
   47.5730   32.6290   44.2720 N   0  0  0  0  0  0  0  0  0  0  0  0
   46.9080   32.0900   45.3300 C   0  0  0  0  0  0  0  0  0  0  0  0
   45.8650   31.2720   45.1980 N   0  0  0  0  0  0  0  0  0  0  0  0
   46.2600   34.7810   42.0990 C   0  0  0  0  0  0  0  0  0  0  0  0
   45.7940   35.3530   43.2880 C   0  0  0  0  0  0  0  0  0  0  0  0
   44.4270   35.6270   43.3360 C   0  0  0  0  0  0  0  0  0  0  0  0
   43.6600   35.3220   42.2380 C   0  0  0  0  0  0  0  0  0  0  0  0
   44.1380   34.7590   41.0780 C   0  0  0  0  0  0  0  0  0  0  0  0
   45.4780   34.4900   41.0280 N   0  0  0  0  0  0  0  0  0  0  0  0
   43.2460   34.4680   39.9490 C   0  0  0  0  0  0  0  0  0  0  0  0
   42.0120   34.6260   40.1070 O   0  0  0  0  0  0  0  0  0  0  0  0
   43.8220   34.0220   38.7250 N   0  0  0  0  0  0  0  0  0  0  0  0
   48.9261   32.6635   41.9752 H   0  0  0  0  0  0  0  0  0  0  0  0
   47.6475   31.1795   40.6468 H   0  0  0  0  0  0  0  0  0  0  0  0
   46.5396   32.4975   40.2300 H   0  0  0  0  0  0  0  0  0  0  0  0
   49.6124   32.7225   40.0019 H   0  0  0  0  0  0  0  0  0  0  0  0
   48.5898   32.2411   38.6346 H   0  0  0  0  0  0  0  0  0  0  0  0
   49.0325   34.7169   38.7017 H   0  0  0  0  0  0  0  0  0  0  0  0
   47.2589   34.2939   38.8725 H   0  0  0  0  0  0  0  0  0  0  0  0
   49.1667   35.4597   40.8264 H   0  0  0  0  0  0  0  0  0  0  0  0
   47.4099   35.8637   40.3688 H   0  0  0  0  0  0  0  0  0  0  0  0
   48.2778   34.8195   42.6127 H   0  0  0  0  0  0  0  0  0  0  0  0
   44.5631   30.2696   43.8101 H   0  0  0  0  0  0  0  0  0  0  0  0
   45.7766   31.2544   41.8596 H   0  0  0  0  0  0  0  0  0  0  0  0
   47.2488   32.3425   46.3449 H   0  0  0  0  0  0  0  0  0  0  0  0
   46.4639   35.5729   44.1323 H   0  0  0  0  0  0  0  0  0  0  0  0
   43.9740   36.0766   44.2319 H   0  0  0  0  0  0  0  0  0  0  0  0
   42.5840   35.5445   42.2905 H   0  0  0  0  0  0  0  0  0  0  0  0
   44.8428   33.9085   38.6474 H   0  0  0  0  0  0  0  0  0  0  0  0
   43.2177   33.8130   37.9175 H   0  0  0  0  0  0  0  0  0  0  0  0
  1  9  1  0
  2  1  1  0
  3  2  1  0
  4  3  1  0
  4  5  1  0
  5  6  1  0
  6  1  1  0
  6 13  1  0
  7 12  2  0
  8  9  2  0
  8  7  1  0
  9 10  1  0
 10 11  2  0
 12 11  1  0
 13 14  2  0
 14 15  1  0
 16 15  2  0
 17 16  1  0
 18 17  2  0
 18 13  1  0
 19 20  2  0
 19 17  1  0
 21 19  1  0
  1 22  1  1
  2 23  1  0
  2 24  1  0
  3 25  1  0
  3 26  1  0
  4 27  1  0
  4 28  1  0
  5 29  1  0
  5 30  1  0
  6 31  1  1
  7 32  1  0
  8 33  1  0
 11 34  1  0
 14 35  1  0
 15 36  1  0
 16 37  1  0
 21 38  1  0
 21 39  1  0
M  ISO  8  22  13  23  13  24  13  25  13  26  13  27  13  28  13  29  13
M  ISO  8  30  13  31  13  32  14  33  14  34  14  35  14  36  14  37  14
M  END
>  <minimizedAffinity>  (1) 
-5.10297489

>  <minimizedRMSD>  (1) 
0.392663091

$$$$
