
     RDKit          3D

 36 39  0  0  0  0  0  0  0  0999 V2000
   46.5740   34.5050   42.2280 C   0  0  0  0  0  0  0  0  0  0  0  0
   47.7530   35.1930   42.0330 C   0  0  0  0  0  0  0  0  0  0  0  0
   48.4130   35.1160   40.8240 C   0  0  0  0  0  0  0  0  0  0  0  0
   47.8630   34.3400   39.8330 C   0  0  0  0  0  0  0  0  0  0  0  0
   46.6930   33.6340   39.9730 C   0  0  0  0  0  0  0  0  0  0  0  0
   46.0770   33.7550   41.2170 C   0  0  0  0  0  0  0  0  0  0  0  0
   44.8310   33.0130   41.4040 C   0  0  0  0  0  0  0  0  0  0  0  0
   44.7990   31.7120   41.8930 C   0  0  0  0  0  0  0  0  0  0  0  0
   43.5850   31.0690   42.0520 C   0  0  0  0  0  0  0  0  0  0  0  0
   42.3840   31.6700   41.7410 C   0  0  0  0  0  0  0  0  0  0  0  0
   42.4030   32.9780   41.2470 C   0  0  0  0  0  0  0  0  0  0  0  0
   41.1930   33.5650   40.9430 C   0  0  0  0  0  0  0  0  0  0  0  0
   41.2290   34.8730   40.4540 C   0  0  0  0  0  0  0  0  0  0  0  0
   42.4490   35.5020   40.3010 C   0  0  0  0  0  0  0  0  0  0  0  0
   43.6450   34.8890   40.6140 C   0  0  0  0  0  0  0  0  0  0  0  0
   43.6250   33.6040   41.0970 C   0  0  0  0  0  0  0  0  0  0  0  0
   45.4840   33.9640   45.8150 C   0  0  0  0  0  0  0  0  0  0  0  0
   46.1370   33.7500   44.5890 C   0  0  0  0  0  0  0  0  0  0  0  0
   45.9460   34.6440   43.5280 C   0  0  0  0  0  0  0  0  0  0  0  0
   45.1250   35.6860   43.7560 N   0  0  0  0  0  0  0  0  0  0  0  0
   44.4970   35.8900   44.9410 C   0  0  0  0  0  0  0  0  0  0  0  0
   44.6770   35.0260   45.9770 N   0  0  0  0  0  0  0  0  0  0  0  0
   48.1694   35.8064   42.8456 H   0  0  0  0  0  0  0  0  0  0  0  0
   49.3539   35.6611   40.6582 H   0  0  0  0  0  0  0  0  0  0  0  0
   48.3910   34.2804   38.8698 H   0  0  0  0  0  0  0  0  0  0  0  0
   46.2736   33.0189   39.1633 H   0  0  0  0  0  0  0  0  0  0  0  0
   45.7353   31.1962   42.1523 H   0  0  0  0  0  0  0  0  0  0  0  0
   43.5774   30.0401   42.4410 H   0  0  0  0  0  0  0  0  0  0  0  0
   41.4335   31.1335   41.8782 H   0  0  0  0  0  0  0  0  0  0  0  0
   40.2428   33.0279   41.0793 H   0  0  0  0  0  0  0  0  0  0  0  0
   40.2968   35.3958   40.1939 H   0  0  0  0  0  0  0  0  0  0  0  0
   42.4680   36.5317   39.9146 H   0  0  0  0  0  0  0  0  0  0  0  0
   44.5983   35.4209   40.4788 H   0  0  0  0  0  0  0  0  0  0  0  0
   45.6343   33.2588   46.6457 H   0  0  0  0  0  0  0  0  0  0  0  0
   46.7983   32.8801   44.4627 H   0  0  0  0  0  0  0  0  0  0  0  0
   43.8368   36.7610   45.0656 H   0  0  0  0  0  0  0  0  0  0  0  0
  1 19  1  0
  2  1  2  0
  3  2  1  0
  4  5  1  0
  4  3  2  0
  5  6  2  0
  6  7  1  0
  6  1  1  0
  7  8  2  0
  8  9  1  0
 10  9  2  0
 11 10  1  0
 12 11  2  0
 13 12  1  0
 14 13  2  0
 14 15  1  0
 15 16  2  0
 16 11  1  0
 16  7  1  0
 17 22  2  0
 18 17  1  0
 19 20  1  0
 19 18  2  0
 20 21  2  0
 21 22  1  0
  2 23  1  0
  3 24  1  0
  4 25  1  0
  5 26  1  0
  8 27  1  0
  9 28  1  0
 10 29  1  0
 12 30  1  0
 13 31  1  0
 14 32  1  0
 15 33  1  0
 17 34  1  0
 18 35  1  0
 21 36  1  0
M  ISO  8  23  14  24  14  25  14  26  14  27  14  28  14  29  14  30  14
M  ISO  6  31  14  32  14  33  14  34  14  35  14  36  14
M  END
>  <minimizedAffinity>  (1) 
-6.50884438

>  <minimizedRMSD>  (1) 
2.57308006

$$$$
