
     RDKit          3D

 30 32  0  0  0  0  0  0  0  0999 V2000
   46.5380   34.6610   42.1170 C   0  0  0  0  0  0  0  0  0  0  0  0
   47.7850   35.2380   41.9880 C   0  0  0  0  0  0  0  0  0  0  0  0
   48.4990   35.0960   40.8130 C   0  0  0  0  0  0  0  0  0  0  0  0
   47.9190   34.3620   39.7900 C   0  0  0  0  0  0  0  0  0  0  0  0
   46.6840   33.7700   39.8700 C   0  0  0  0  0  0  0  0  0  0  0  0
   46.0190   33.9550   41.0850 C   0  0  0  0  0  0  0  0  0  0  0  0
   44.4500   36.0320   44.9620 C   0  0  0  0  0  0  0  0  0  0  0  0
   45.0510   35.9390   43.6880 C   0  0  0  0  0  0  0  0  0  0  0  0
   45.8670   34.8640   43.3900 C   0  0  0  0  0  0  0  0  0  0  0  0
   46.0440   33.9330   44.3740 N   0  0  0  0  0  0  0  0  0  0  0  0
   45.4700   34.0200   45.5950 C   0  0  0  0  0  0  0  0  0  0  0  0
   44.6660   35.0830   45.8830 N   0  0  0  0  0  0  0  0  0  0  0  0
   43.8620   35.5180   40.4230 F   0  0  0  0  0  0  0  0  0  0  0  0
   43.7000   34.2330   40.8440 C   0  0  0  0  0  0  0  0  0  0  0  0
   44.7020   33.3400   41.2070 C   0  0  0  0  0  0  0  0  0  0  0  0
   44.3530   32.0740   41.6110 C   0  0  0  0  0  0  0  0  0  0  0  0
   43.0220   31.7110   41.6470 C   0  0  0  0  0  0  0  0  0  0  0  0
   42.0230   32.5890   41.2890 C   0  0  0  0  0  0  0  0  0  0  0  0
   42.3630   33.8640   40.8830 C   0  0  0  0  0  0  0  0  0  0  0  0
   48.2121   35.8128   42.8230 H   0  0  0  0  0  0  0  0  0  0  0  0
   49.4938   35.5501   40.6937 H   0  0  0  0  0  0  0  0  0  0  0  0
   48.4853   34.2469   38.8540 H   0  0  0  0  0  0  0  0  0  0  0  0
   46.2499   33.1931   39.0401 H   0  0  0  0  0  0  0  0  0  0  0  0
   43.8011   36.8878   45.1998 H   0  0  0  0  0  0  0  0  0  0  0  0
   44.8704   36.7199   42.9346 H   0  0  0  0  0  0  0  0  0  0  0  0
   45.6500   33.2401   46.3495 H   0  0  0  0  0  0  0  0  0  0  0  0
   45.1306   31.3534   41.9043 H   0  0  0  0  0  0  0  0  0  0  0  0
   42.7521   30.6947   41.9698 H   0  0  0  0  0  0  0  0  0  0  0  0
   40.9684   32.2785   41.3261 H   0  0  0  0  0  0  0  0  0  0  0  0
   41.5808   34.5810   40.5930 H   0  0  0  0  0  0  0  0  0  0  0  0
  1  9  1  0
  2  1  2  0
  3  2  1  0
  4  5  1  0
  4  3  2  0
  5  6  2  0
  6 15  1  0
  6  1  1  0
  7 12  2  0
  8  7  1  0
  9  8  2  0
  9 10  1  0
 10 11  2  0
 11 12  1  0
 13 14  1  0
 14 19  2  0
 14 15  1  0
 15 16  2  0
 16 17  1  0
 18 17  2  0
 19 18  1  0
  2 20  1  0
  3 21  1  0
  4 22  1  0
  5 23  1  0
  7 24  1  0
  8 25  1  0
 11 26  1  0
 16 27  1  0
 17 28  1  0
 18 29  1  0
 19 30  1  0
M  ISO  8  20  14  21  14  22  14  23  14  24  14  25  14  26  14  27  14
M  ISO  3  28  14  29  14  30  14
M  END
>  <minimizedAffinity>  (1) 
-5.92542696

>  <minimizedRMSD>  (1) 
0.564254224

$$$$
