
     RDKit          3D

 21 22  0  0  0  0  0  0  0  0999 V2000
   46.7160   34.7230   41.9890 C   0  0  0  0  0  0  0  0  0  0  0  0
   47.9130   35.4080   41.8840 C   0  0  0  0  0  0  0  0  0  0  0  0
   48.6730   35.3090   40.7390 C   0  0  0  0  0  0  0  0  0  0  0  0
   48.1920   34.5060   39.7170 C   0  0  0  0  0  0  0  0  0  0  0  0
   47.0120   33.8080   39.7740 C   0  0  0  0  0  0  0  0  0  0  0  0
   46.2840   33.9500   40.9650 C   0  0  0  0  0  0  0  0  0  0  0  0
   44.5080   36.0360   44.7730 C   0  0  0  0  0  0  0  0  0  0  0  0
   45.1590   35.9800   43.5160 C   0  0  0  0  0  0  0  0  0  0  0  0
   45.9880   34.8970   43.2460 C   0  0  0  0  0  0  0  0  0  0  0  0
   46.1260   33.9450   44.2150 N   0  0  0  0  0  0  0  0  0  0  0  0
   45.4950   34.0190   45.4050 C   0  0  0  0  0  0  0  0  0  0  0  0
   44.6840   35.0660   45.6850 N   0  0  0  0  0  0  0  0  0  0  0  0
   45.0890   33.2920   41.1270 O   0  0  0  0  0  0  0  0  0  0  0  0
   48.2599   36.0349   42.7187 H   0  0  0  0  0  0  0  0  0  0  0  0
   49.6269   35.8477   40.6397 H   0  0  0  0  0  0  0  0  0  0  0  0
   48.7952   34.4228   38.8009 H   0  0  0  0  0  0  0  0  0  0  0  0
   46.6606   33.1797   38.9423 H   0  0  0  0  0  0  0  0  0  0  0  0
   43.8492   36.8858   45.0052 H   0  0  0  0  0  0  0  0  0  0  0  0
   45.0119   36.7753   42.7705 H   0  0  0  0  0  0  0  0  0  0  0  0
   45.6403   33.2244   46.1517 H   0  0  0  0  0  0  0  0  0  0  0  0
   44.5777   33.3943   41.9686 H   0  0  0  0  0  0  0  0  0  0  0  0
  1  9  1  0
  2  1  2  0
  3  2  1  0
  4  5  1  0
  4  3  2  0
  5  6  2  0
  6 13  1  0
  6  1  1  0
  7 12  2  0
  8  7  1  0
  9  8  2  0
  9 10  1  0
 10 11  2  0
 11 12  1  0
  2 14  1  0
  3 15  1  0
  4 16  1  0
  5 17  1  0
  7 18  1  0
  8 19  1  0
 11 20  1  0
 13 21  1  0
M  ISO  8  14  14  15  14  16  14  17  14  18  14  19  14  20  14  21   3
M  END
>  <minimizedAffinity>  (1) 
-5.04253244

>  <minimizedRMSD>  (1) 
0.0515712574

$$$$
