
     RDKit          3D

 34 36  0  0  0  0  0  0  0  0999 V2000
   46.4830   34.7190   42.0250 C   0  0  0  0  0  0  0  0  0  0  0  0
   47.8300   35.0810   41.9570 C   0  0  0  0  0  0  0  0  0  0  0  0
   48.5190   34.8460   40.7780 C   0  0  0  0  0  0  0  0  0  0  0  0
   47.8840   34.2740   39.7130 C   0  0  0  0  0  0  0  0  0  0  0  0
   46.5550   33.9020   39.7430 C   0  0  0  0  0  0  0  0  0  0  0  0
   45.8920   34.1540   40.9460 C   0  0  0  0  0  0  0  0  0  0  0  0
   44.4750   36.2690   44.8200 C   0  0  0  0  0  0  0  0  0  0  0  0
   45.0850   36.1260   43.5580 C   0  0  0  0  0  0  0  0  0  0  0  0
   45.8080   34.9870   43.2800 C   0  0  0  0  0  0  0  0  0  0  0  0
   45.8910   34.0410   44.2730 N   0  0  0  0  0  0  0  0  0  0  0  0
   45.3050   34.1850   45.4780 C   0  0  0  0  0  0  0  0  0  0  0  0
   44.5950   35.3020   45.7530 N   0  0  0  0  0  0  0  0  0  0  0  0
   43.2790   34.3430   40.6380 C   0  0  0  0  0  0  0  0  0  0  0  0
   43.1340   35.3170   39.8980 O   0  0  0  0  0  0  0  0  0  0  0  0
   44.5210   33.8210   41.1110 N   0  0  0  0  0  0  0  0  0  0  0  0
   40.5420   35.6820   40.8590 Cl  0  0  0  0  0  0  0  0  0  0  0  0
   40.8110   34.0280   41.2920 C   0  0  0  0  0  0  0  0  0  0  0  0
   42.1060   33.5830   41.1290 C   0  0  0  0  0  0  0  0  0  0  0  0
   42.4270   32.2650   41.4500 C   0  0  0  0  0  0  0  0  0  0  0  0
   41.4740   31.3890   41.9280 C   0  0  0  0  0  0  0  0  0  0  0  0
   40.1590   31.8250   42.0970 C   0  0  0  0  0  0  0  0  0  0  0  0
   39.8650   33.1500   41.7690 C   0  0  0  0  0  0  0  0  0  0  0  0
   48.3327   35.5423   42.8199 H   0  0  0  0  0  0  0  0  0  0  0  0
   49.5811   35.1212   40.6997 H   0  0  0  0  0  0  0  0  0  0  0  0
   48.4571   34.1020   38.7900 H   0  0  0  0  0  0  0  0  0  0  0  0
   46.0535   33.4396   38.8801 H   0  0  0  0  0  0  0  0  0  0  0  0
   43.8962   37.1766   45.0464 H   0  0  0  0  0  0  0  0  0  0  0  0
   44.9847   36.9176   42.8008 H   0  0  0  0  0  0  0  0  0  0  0  0
   45.4043   33.3947   46.2367 H   0  0  0  0  0  0  0  0  0  0  0  0
   44.3909   33.0019   41.7218 H   0  0  0  0  0  0  0  0  0  0  0  0
   43.4619   31.9159   41.3195 H   0  0  0  0  0  0  0  0  0  0  0  0
   41.7492   30.3529   42.1745 H   0  0  0  0  0  0  0  0  0  0  0  0
   39.3799   31.1472   42.4761 H   0  0  0  0  0  0  0  0  0  0  0  0
   38.8326   33.5073   41.8975 H   0  0  0  0  0  0  0  0  0  0  0  0
  1  9  1  0
  2  1  2  0
  3  2  1  0
  4  5  1  0
  4  3  2  0
  5  6  2  0
  6 15  1  0
  6  1  1  0
  7 12  2  0
  8  7  1  0
  9  8  2  0
  9 10  1  0
 10 11  2  0
 11 12  1  0
 13 15  1  0
 13 18  1  0
 14 13  2  0
 16 17  1  0
 17 22  2  0
 18 17  1  0
 18 19  2  0
 19 20  1  0
 20 21  2  0
 22 21  1  0
  2 23  1  0
  3 24  1  0
  4 25  1  0
  5 26  1  0
  7 27  1  0
  8 28  1  0
 11 29  1  0
 15 30  1  0
 19 31  1  0
 20 32  1  0
 21 33  1  0
 22 34  1  0
M  ISO  8  23  14  24  14  25  14  26  14  27  14  28  14  29  14  31  14
M  ISO  3  32  14  33  14  34  14
M  END
>  <minimizedAffinity>  (1) 
-6.637393

>  <minimizedRMSD>  (1) 
1.08048332

$$$$
