
     RDKit          3D

 34 36  0  0  0  0  0  0  0  0999 V2000
   46.5540   34.7480   42.0130 C   0  0  0  0  0  0  0  0  0  0  0  0
   47.8720   35.1850   41.9500 C   0  0  0  0  0  0  0  0  0  0  0  0
   48.5760   34.9640   40.7690 C   0  0  0  0  0  0  0  0  0  0  0  0
   47.9600   34.3260   39.7060 C   0  0  0  0  0  0  0  0  0  0  0  0
   46.6730   33.8900   39.7450 C   0  0  0  0  0  0  0  0  0  0  0  0
   45.9830   34.1240   40.9480 C   0  0  0  0  0  0  0  0  0  0  0  0
   44.4960   36.2310   44.7990 C   0  0  0  0  0  0  0  0  0  0  0  0
   45.1150   36.1190   43.5350 C   0  0  0  0  0  0  0  0  0  0  0  0
   45.8540   34.9960   43.2690 C   0  0  0  0  0  0  0  0  0  0  0  0
   45.9460   34.0430   44.2530 N   0  0  0  0  0  0  0  0  0  0  0  0
   45.3550   34.1500   45.4580 C   0  0  0  0  0  0  0  0  0  0  0  0
   44.6140   35.2650   45.7400 N   0  0  0  0  0  0  0  0  0  0  0  0
   43.3610   34.2000   40.7800 C   0  0  0  0  0  0  0  0  0  0  0  0
   43.1600   35.2730   40.1540 O   0  0  0  0  0  0  0  0  0  0  0  0
   44.6460   33.7160   41.1140 N   0  0  0  0  0  0  0  0  0  0  0  0
   40.5880   35.1340   40.8690 F   0  0  0  0  0  0  0  0  0  0  0  0
   40.8680   33.8620   41.2150 C   0  0  0  0  0  0  0  0  0  0  0  0
   42.1640   33.4600   41.1520 C   0  0  0  0  0  0  0  0  0  0  0  0
   42.2920   32.1220   41.5300 C   0  0  0  0  0  0  0  0  0  0  0  0
   41.2640   31.3050   41.9150 C   0  0  0  0  0  0  0  0  0  0  0  0
   39.9840   31.8000   41.9490 C   0  0  0  0  0  0  0  0  0  0  0  0
   39.7840   33.1120   41.5890 C   0  0  0  0  0  0  0  0  0  0  0  0
   48.3440   35.6895   42.8060 H   0  0  0  0  0  0  0  0  0  0  0  0
   49.6209   35.2962   40.6808 H   0  0  0  0  0  0  0  0  0  0  0  0
   48.5399   34.1640   38.7854 H   0  0  0  0  0  0  0  0  0  0  0  0
   46.2007   33.3857   38.8891 H   0  0  0  0  0  0  0  0  0  0  0  0
   43.9013   37.1282   45.0255 H   0  0  0  0  0  0  0  0  0  0  0  0
   45.0067   36.9137   42.7822 H   0  0  0  0  0  0  0  0  0  0  0  0
   45.4665   33.3513   46.2061 H   0  0  0  0  0  0  0  0  0  0  0  0
   44.5886   32.8188   41.6167 H   0  0  0  0  0  0  0  0  0  0  0  0
   43.3030   31.6887   41.5173 H   0  0  0  0  0  0  0  0  0  0  0  0
   41.4617   30.2598   42.1951 H   0  0  0  0  0  0  0  0  0  0  0  0
   39.1407   31.1640   42.2561 H   0  0  0  0  0  0  0  0  0  0  0  0
   38.7751   33.5501   41.6010 H   0  0  0  0  0  0  0  0  0  0  0  0
  1  9  1  0
  2  1  2  0
  3  2  1  0
  4  5  1  0
  4  3  2  0
  5  6  2  0
  6 15  1  0
  6  1  1  0
  7 12  2  0
  8  7  1  0
  9  8  2  0
  9 10  1  0
 10 11  2  0
 11 12  1  0
 13 15  1  0
 13 18  1  0
 14 13  2  0
 16 17  1  0
 17 22  2  0
 18 17  1  0
 18 19  2  0
 19 20  1  0
 20 21  2  0
 22 21  1  0
  2 23  1  0
  3 24  1  0
  4 25  1  0
  5 26  1  0
  7 27  1  0
  8 28  1  0
 11 29  1  0
 15 30  1  0
 19 31  1  0
 20 32  1  0
 21 33  1  0
 22 34  1  0
M  ISO  8  23  14  24  14  25  14  26  14  27  14  28  14  29  14  31  14
M  ISO  3  32  14  33  14  34  14
M  END
>  <minimizedAffinity>  (1) 
-6.61719894

>  <minimizedRMSD>  (1) 
0.566756785

$$$$
