
     RDKit          3D

 36 38  0  0  0  0  0  0  0  0999 V2000
   46.5790   34.7330   42.0160 C   0  0  0  0  0  0  0  0  0  0  0  0
   47.8710   35.2230   41.9340 C   0  0  0  0  0  0  0  0  0  0  0  0
   48.5940   35.0380   40.7550 C   0  0  0  0  0  0  0  0  0  0  0  0
   48.0110   34.3790   39.7120 C   0  0  0  0  0  0  0  0  0  0  0  0
   46.7420   33.8830   39.7550 C   0  0  0  0  0  0  0  0  0  0  0  0
   46.0420   34.0860   40.9570 C   0  0  0  0  0  0  0  0  0  0  0  0
   43.4200   34.1110   40.8220 C   0  0  0  0  0  0  0  0  0  0  0  0
   43.1580   35.1750   40.2580 O   0  0  0  0  0  0  0  0  0  0  0  0
   44.7140   33.6230   41.1390 N   0  0  0  0  0  0  0  0  0  0  0  0
   42.3150   33.2790   41.1970 N   0  0  0  0  0  0  0  0  0  0  0  0
   40.9710   33.7690   41.2280 C   0  0  0  0  0  0  0  0  0  0  0  0
   40.1220   32.5560   40.9510 C   0  0  0  0  0  0  0  0  0  0  0  0
   41.0480   31.3650   40.9050 C   0  0  0  0  0  0  0  0  0  0  0  0
   42.2950   31.8850   41.5910 C   0  0  0  0  0  0  0  0  0  0  0  0
   44.4940   36.1960   44.8050 C   0  0  0  0  0  0  0  0  0  0  0  0
   45.1220   36.0850   43.5480 C   0  0  0  0  0  0  0  0  0  0  0  0
   45.8850   34.9600   43.2690 C   0  0  0  0  0  0  0  0  0  0  0  0
   45.9770   34.0220   44.2480 N   0  0  0  0  0  0  0  0  0  0  0  0
   45.3710   34.1390   45.4480 C   0  0  0  0  0  0  0  0  0  0  0  0
   44.6210   35.2410   45.7270 N   0  0  0  0  0  0  0  0  0  0  0  0
   48.3218   35.7513   42.7871 H   0  0  0  0  0  0  0  0  0  0  0  0
   49.6222   35.4190   40.6673 H   0  0  0  0  0  0  0  0  0  0  0  0
   48.5946   34.2410   38.7898 H   0  0  0  0  0  0  0  0  0  0  0  0
   46.2928   33.3556   38.9005 H   0  0  0  0  0  0  0  0  0  0  0  0
   44.6808   32.7114   41.6173 H   0  0  0  0  0  0  0  0  0  0  0  0
   40.7340   34.1925   42.2152 H   0  0  0  0  0  0  0  0  0  0  0  0
   40.8019   34.5741   40.4978 H   0  0  0  0  0  0  0  0  0  0  0  0
   39.3790   32.4251   41.7515 H   0  0  0  0  0  0  0  0  0  0  0  0
   39.5805   32.6669   39.9999 H   0  0  0  0  0  0  0  0  0  0  0  0
   40.6222   30.5103   41.4511 H   0  0  0  0  0  0  0  0  0  0  0  0
   41.2329   30.9953   39.8856 H   0  0  0  0  0  0  0  0  0  0  0  0
   43.1929   31.3588   41.2347 H   0  0  0  0  0  0  0  0  0  0  0  0
   42.2876   31.7387   42.6812 H   0  0  0  0  0  0  0  0  0  0  0  0
   43.8883   37.0864   45.0294 H   0  0  0  0  0  0  0  0  0  0  0  0
   45.0086   36.8808   42.7971 H   0  0  0  0  0  0  0  0  0  0  0  0
   45.4827   33.3446   46.2006 H   0  0  0  0  0  0  0  0  0  0  0  0
  1 17  1  0
  2  1  2  0
  3  2  1  0
  4  5  1  0
  4  3  2  0
  5  6  2  0
  6  9  1  0
  6  1  1  0
  7  9  1  0
  7 10  1  0
  8  7  2  0
 10 11  1  0
 10 14  1  0
 12 11  1  0
 13 12  1  0
 13 14  1  0
 15 20  2  0
 16 15  1  0
 17 16  2  0
 17 18  1  0
 18 19  2  0
 19 20  1  0
  2 21  1  0
  3 22  1  0
  4 23  1  0
  5 24  1  0
  9 25  1  0
 11 26  1  0
 11 27  1  0
 12 28  1  0
 12 29  1  0
 13 30  1  0
 13 31  1  0
 14 32  1  0
 14 33  1  0
 15 34  1  0
 16 35  1  0
 19 36  1  0
M  ISO  8  21  14  22  14  23  14  24  14  26  13  27  13  28  13  29  13
M  ISO  7  30  13  31  13  32  13  33  13  34  14  35  14  36  14
M  END
>  <minimizedAffinity>  (1) 
-6.2095685

>  <minimizedRMSD>  (1) 
0.305716783

$$$$
