
     RDKit          3D

 31 33  0  0  0  0  0  0  0  0999 V2000
   46.6300   34.7570   41.9790 C   0  0  0  0  0  0  0  0  0  0  0  0
   47.9080   35.2870   41.9120 C   0  0  0  0  0  0  0  0  0  0  0  0
   48.6360   35.1120   40.7410 C   0  0  0  0  0  0  0  0  0  0  0  0
   48.0740   34.4210   39.6850 C   0  0  0  0  0  0  0  0  0  0  0  0
   46.8230   33.8900   39.7250 C   0  0  0  0  0  0  0  0  0  0  0  0
   46.1140   34.0830   40.9180 C   0  0  0  0  0  0  0  0  0  0  0  0
   44.4880   36.1460   44.7640 C   0  0  0  0  0  0  0  0  0  0  0  0
   45.1330   36.0610   43.5040 C   0  0  0  0  0  0  0  0  0  0  0  0
   45.9140   34.9700   43.2290 C   0  0  0  0  0  0  0  0  0  0  0  0
   46.0170   34.0280   44.2040 N   0  0  0  0  0  0  0  0  0  0  0  0
   45.4100   34.1000   45.4040 C   0  0  0  0  0  0  0  0  0  0  0  0
   44.6270   35.1890   45.6840 N   0  0  0  0  0  0  0  0  0  0  0  0
   43.5060   33.9870   40.6760 C   0  0  0  0  0  0  0  0  0  0  0  0
   43.2260   34.9940   40.0100 O   0  0  0  0  0  0  0  0  0  0  0  0
   44.7980   33.5810   41.0920 N   0  0  0  0  0  0  0  0  0  0  0  0
   42.4010   33.0670   41.1140 C   0  0  0  0  0  0  0  0  0  0  0  0
   41.2120   32.8350   40.2830 C   0  0  0  0  0  0  0  0  0  0  0  0
   41.1010   33.8370   41.3900 C   0  0  0  0  0  0  0  0  0  0  0  0
   48.3365   35.8333   42.7652 H   0  0  0  0  0  0  0  0  0  0  0  0
   49.6535   35.5212   40.6556 H   0  0  0  0  0  0  0  0  0  0  0  0
   48.6673   34.2943   38.7674 H   0  0  0  0  0  0  0  0  0  0  0  0
   46.3938   33.3424   38.8730 H   0  0  0  0  0  0  0  0  0  0  0  0
   43.8591   37.0202   44.9882 H   0  0  0  0  0  0  0  0  0  0  0  0
   45.0079   36.8598   42.7582 H   0  0  0  0  0  0  0  0  0  0  0  0
   45.5405   33.2987   46.1462 H   0  0  0  0  0  0  0  0  0  0  0  0
   44.7773   32.7176   41.6533 H   0  0  0  0  0  0  0  0  0  0  0  0
   43.0808   32.3615   41.6142 H   0  0  0  0  0  0  0  0  0  0  0  0
   41.2045   33.1772   39.2376 H   0  0  0  0  0  0  0  0  0  0  0  0
   40.6385   31.9388   40.0038 H   0  0  0  0  0  0  0  0  0  0  0  0
   40.5015   33.6126   42.2846 H   0  0  0  0  0  0  0  0  0  0  0  0
   40.8119   34.8952   41.4715 H   0  0  0  0  0  0  0  0  0  0  0  0
  1  9  1  0
  2  1  2  0
  3  2  1  0
  4  5  1  0
  4  3  2  0
  5  6  2  0
  6 15  1  0
  6  1  1  0
  7 12  2  0
  8  7  1  0
  9  8  2  0
  9 10  1  0
 10 11  2  0
 11 12  1  0
 13 15  1  0
 13 16  1  0
 14 13  2  0
 16 18  1  0
 17 16  1  0
 17 18  1  0
  2 19  1  0
  3 20  1  0
  4 21  1  0
  5 22  1  0
  7 23  1  0
  8 24  1  0
 11 25  1  0
 15 26  1  0
 16 27  1  0
 17 28  1  0
 17 29  1  0
 18 30  1  0
 18 31  1  0
M  ISO  8  19  14  20  14  21  14  22  14  23  14  24  14  25  14  27  13
M  ISO  4  28  13  29  13  30  13  31  13
M  END
>  <minimizedAffinity>  (1) 
-5.5441432

>  <minimizedRMSD>  (1) 
0.274767369

$$$$
