
     RDKit          3D

 26 27  0  0  0  0  0  0  0  0999 V2000
   46.6700   34.7560   41.9700 C   0  0  0  0  0  0  0  0  0  0  0  0
   47.9340   35.3350   41.9000 C   0  0  0  0  0  0  0  0  0  0  0  0
   48.6630   35.1670   40.7220 C   0  0  0  0  0  0  0  0  0  0  0  0
   48.1270   34.4480   39.6740 C   0  0  0  0  0  0  0  0  0  0  0  0
   46.8930   33.8760   39.7270 C   0  0  0  0  0  0  0  0  0  0  0  0
   46.1880   34.0610   40.9200 C   0  0  0  0  0  0  0  0  0  0  0  0
   44.5100   36.1500   44.7360 C   0  0  0  0  0  0  0  0  0  0  0  0
   45.1600   36.0650   43.4940 C   0  0  0  0  0  0  0  0  0  0  0  0
   45.9500   34.9560   43.2150 C   0  0  0  0  0  0  0  0  0  0  0  0
   46.0450   34.0040   44.1850 N   0  0  0  0  0  0  0  0  0  0  0  0
   45.4170   34.0910   45.3810 C   0  0  0  0  0  0  0  0  0  0  0  0
   44.6470   35.1700   45.6560 N   0  0  0  0  0  0  0  0  0  0  0  0
   43.5660   33.9300   40.7980 C   0  0  0  0  0  0  0  0  0  0  0  0
   43.2300   34.9580   40.2100 O   0  0  0  0  0  0  0  0  0  0  0  0
   44.8910   33.5090   41.0880 N   0  0  0  0  0  0  0  0  0  0  0  0
   42.5630   33.0260   41.2630 N   0  0  0  0  0  0  0  0  0  0  0  0
   48.3447   35.9062   42.7456 H   0  0  0  0  0  0  0  0  0  0  0  0
   49.6662   35.6085   40.6291 H   0  0  0  0  0  0  0  0  0  0  0  0
   48.7222   34.3319   38.7562 H   0  0  0  0  0  0  0  0  0  0  0  0
   46.4768   33.3043   38.8844 H   0  0  0  0  0  0  0  0  0  0  0  0
   43.8822   37.0244   44.9624 H   0  0  0  0  0  0  0  0  0  0  0  0
   45.0452   36.8672   42.7502 H   0  0  0  0  0  0  0  0  0  0  0  0
   45.5317   33.2893   46.1254 H   0  0  0  0  0  0  0  0  0  0  0  0
   44.9172   32.5774   41.5265 H   0  0  0  0  0  0  0  0  0  0  0  0
   41.5671   33.2359   41.1047 H   0  0  0  0  0  0  0  0  0  0  0  0
   42.8355   32.1641   41.7567 H   0  0  0  0  0  0  0  0  0  0  0  0
  1  9  1  0
  2  1  2  0
  3  2  1  0
  4  5  1  0
  4  3  2  0
  5  6  2  0
  6 15  1  0
  6  1  1  0
  7 12  2  0
  8  7  1  0
  9  8  2  0
  9 10  1  0
 10 11  2  0
 11 12  1  0
 13 15  1  0
 13 16  1  0
 14 13  2  0
  2 17  1  0
  3 18  1  0
  4 19  1  0
  5 20  1  0
  7 21  1  0
  8 22  1  0
 11 23  1  0
 15 24  1  0
 16 25  1  0
 16 26  1  0
M  ISO  7  17  14  18  14  19  14  20  14  21  14  22  14  23  14
M  END
>  <minimizedAffinity>  (1) 
-5.42046738

>  <minimizedRMSD>  (1) 
0.0441427939

$$$$
