
     RDKit          3D

 25 26  0  0  0  0  0  0  0  0999 V2000
   46.6550   34.7530   41.9780 C   0  0  0  0  0  0  0  0  0  0  0  0
   47.9210   35.3190   41.9040 C   0  0  0  0  0  0  0  0  0  0  0  0
   48.6430   35.1480   40.7330 C   0  0  0  0  0  0  0  0  0  0  0  0
   48.1130   34.4410   39.6910 C   0  0  0  0  0  0  0  0  0  0  0  0
   46.8630   33.8710   39.7380 C   0  0  0  0  0  0  0  0  0  0  0  0
   46.1550   34.0570   40.9280 C   0  0  0  0  0  0  0  0  0  0  0  0
   44.5100   36.1590   44.7490 C   0  0  0  0  0  0  0  0  0  0  0  0
   45.1590   36.0690   43.4970 C   0  0  0  0  0  0  0  0  0  0  0  0
   45.9370   34.9620   43.2310 C   0  0  0  0  0  0  0  0  0  0  0  0
   46.0280   34.0180   44.2030 N   0  0  0  0  0  0  0  0  0  0  0  0
   45.4090   34.1060   45.3960 C   0  0  0  0  0  0  0  0  0  0  0  0
   44.6420   35.1850   45.6750 N   0  0  0  0  0  0  0  0  0  0  0  0
   43.5330   33.9240   40.8100 C   0  0  0  0  0  0  0  0  0  0  0  0
   43.2090   34.9800   40.2660 O   0  0  0  0  0  0  0  0  0  0  0  0
   44.8550   33.5220   41.1190 N   0  0  0  0  0  0  0  0  0  0  0  0
   42.5030   33.0560   41.1470 O   0  0  0  0  0  0  0  0  0  0  0  0
   48.3384   35.8860   42.7492 H   0  0  0  0  0  0  0  0  0  0  0  0
   49.6487   35.5842   40.6422 H   0  0  0  0  0  0  0  0  0  0  0  0
   48.7118   34.3229   38.7758 H   0  0  0  0  0  0  0  0  0  0  0  0
   46.4465   33.3043   38.8922 H   0  0  0  0  0  0  0  0  0  0  0  0
   43.8868   37.0373   44.9731 H   0  0  0  0  0  0  0  0  0  0  0  0
   45.0457   36.8671   42.7486 H   0  0  0  0  0  0  0  0  0  0  0  0
   45.5265   33.3043   46.1400 H   0  0  0  0  0  0  0  0  0  0  0  0
   44.8788   32.6136   41.6039 H   0  0  0  0  0  0  0  0  0  0  0  0
   41.5646   33.3004   40.9477 H   0  0  0  0  0  0  0  0  0  0  0  0
  1  9  1  0
  2  1  2  0
  3  2  1  0
  4  5  1  0
  4  3  2  0
  5  6  2  0
  6 15  1  0
  6  1  1  0
  7 12  2  0
  8  7  1  0
  9  8  2  0
  9 10  1  0
 10 11  2  0
 11 12  1  0
 13 15  1  0
 13 16  1  0
 14 13  2  0
  2 17  1  0
  3 18  1  0
  4 19  1  0
  5 20  1  0
  7 21  1  0
  8 22  1  0
 11 23  1  0
 15 24  1  0
 16 25  1  0
M  ISO  8  17  14  18  14  19  14  20  14  21  14  22  14  23  14  25   3
M  END
>  <minimizedAffinity>  (1) 
-5.41342783

>  <minimizedRMSD>  (1) 
0.0642128065

$$$$
