
     RDKit          3D

 45 48  0  0  1  0  0  0  0  0999 V2000
   43.5890   33.9440   40.9850 C   0  0  0  0  0  0  0  0  0  0  0  0
   43.2450   35.0550   40.6160 O   0  0  0  0  0  0  0  0  0  0  0  0
   44.9100   33.4950   41.1640 N   0  0  0  0  0  0  0  0  0  0  0  0
   46.6900   34.7800   42.0040 C   0  0  0  0  0  0  0  0  0  0  0  0
   47.9420   35.3740   41.9350 C   0  0  0  0  0  0  0  0  0  0  0  0
   48.6710   35.2020   40.7680 C   0  0  0  0  0  0  0  0  0  0  0  0
   48.1630   34.4740   39.7330 C   0  0  0  0  0  0  0  0  0  0  0  0
   46.9240   33.8750   39.7780 C   0  0  0  0  0  0  0  0  0  0  0  0
   46.1910   34.0530   40.9650 C   0  0  0  0  0  0  0  0  0  0  0  0
   44.5300   36.1600   44.7730 C   0  0  0  0  0  0  0  0  0  0  0  0
   45.1870   36.0850   43.5190 C   0  0  0  0  0  0  0  0  0  0  0  0
   45.9580   34.9870   43.2560 C   0  0  0  0  0  0  0  0  0  0  0  0
   46.0420   34.0300   44.2270 N   0  0  0  0  0  0  0  0  0  0  0  0
   45.4150   34.1070   45.4160 C   0  0  0  0  0  0  0  0  0  0  0  0
   44.6520   35.1850   45.6890 N   0  0  0  0  0  0  0  0  0  0  0  0
   42.5580   33.0400   41.2510 O   0  0  0  0  0  0  0  0  0  0  0  0
   41.2320   33.5370   41.2910 C   0  0  0  0  0  0  0  0  0  0  0  0
   40.4710   32.7460   40.2940 C   0  0  0  0  0  0  0  0  0  0  0  0
   40.1320   33.2350   39.1390 C   0  0  0  0  0  0  0  0  0  0  0  0
   39.4060   32.4740   38.1870 N   0  0  0  0  0  0  0  0  0  0  0  0
   38.3820   32.4070   37.2050 C   0  0  0  0  0  0  0  0  0  0  0  0
   37.6020   33.2380   36.6290 O   0  0  0  0  0  0  0  0  0  0  0  0
   38.5340   30.9390   37.0600 C   0  0  0  0  0  0  0  0  0  0  0  0
   39.7220   31.0500   37.9800 C   0  0  2  0  0  0  0  0  0  0  0  0
   39.4830   30.2710   39.6020 S   0  0  0  0  0  0  0  0  0  0  0  0
   40.1840   31.3930   40.8220 C   0  0  0  0  0  0  0  0  0  0  0  0
   40.4930   34.5970   38.7770 C   0  0  0  0  0  0  0  0  0  0  0  0
   40.4520   35.0780   37.6310 O   0  0  0  0  0  0  0  0  0  0  0  0
   40.9040   35.9130   38.8030 O   0  0  0  0  0  0  0  0  0  0  0  0
   44.9524   32.5315   41.5257 H   0  0  0  0  0  0  0  0  0  0  0  0
   48.3418   35.9601   42.7756 H   0  0  0  0  0  0  0  0  0  0  0  0
   49.6683   35.6570   40.6764 H   0  0  0  0  0  0  0  0  0  0  0  0
   48.7695   34.3603   38.8224 H   0  0  0  0  0  0  0  0  0  0  0  0
   46.5299   33.2905   38.9336 H   0  0  0  0  0  0  0  0  0  0  0  0
   43.9060   37.0367   45.0012 H   0  0  0  0  0  0  0  0  0  0  0  0
   45.0792   36.8896   42.7767 H   0  0  0  0  0  0  0  0  0  0  0  0
   45.5238   33.3003   46.1559 H   0  0  0  0  0  0  0  0  0  0  0  0
   40.8029   33.4018   42.2948 H   0  0  0  0  0  0  0  0  0  0  0  0
   41.1971   34.6129   41.0646 H   0  0  0  0  0  0  0  0  0  0  0  0
   37.6965   30.3477   37.4586 H   0  0  0  0  0  0  0  0  0  0  0  0
   38.6034   30.4550   36.0747 H   0  0  0  0  0  0  0  0  0  0  0  0
   40.6844   30.6567   37.6208 H   0  0  0  0  0  0  0  0  0  0  0  0
   41.1242   30.9587   41.1928 H   0  0  0  0  0  0  0  0  0  0  0  0
   39.4330   31.5119   41.6169 H   0  0  0  0  0  0  0  0  0  0  0  0
   40.9285   36.4406   37.9656 H   0  0  0  0  0  0  0  0  0  0  0  0
  1  3  1  0
  1 16  1  0
  2  1  2  0
  4 12  1  0
  5  4  2  0
  6  5  1  0
  7  8  1  0
  7  6  2  0
  8  9  2  0
  9  3  1  0
  9  4  1  0
 10 15  2  0
 11 10  1  0
 12 11  2  0
 12 13  1  0
 13 14  2  0
 14 15  1  0
 16 17  1  0
 18 26  1  0
 18 17  1  0
 19 18  2  0
 20 19  1  0
 21 20  1  0
 22 21  2  0
 23 21  1  0
 24 23  1  0
 24 20  1  0
 24 25  1  0
 25 26  1  0
 27 29  1  0
 27 19  1  0
 28 27  2  0
  3 30  1  0
  5 31  1  0
  6 32  1  0
  7 33  1  0
  8 34  1  0
 10 35  1  0
 11 36  1  0
 14 37  1  0
 17 38  1  0
 17 39  1  0
 23 40  1  0
 23 41  1  0
 24 42  1  6
 26 43  1  0
 26 44  1  0
 29 45  1  0
M  ISO  8  31  14  32  14  33  14  34  14  35  14  36  14  37  14  38   8
M  ISO  7  39   8  40  13  41  13  42  13  43  13  44  13  45   3
M  END
>  <minimizedAffinity>  (1) 
-6.82302761

>  <minimizedRMSD>  (1) 
0.63846159

$$$$
