
     RDKit          3D

 32 34  0  0  0  0  0  0  0  0999 V2000
   46.6060   34.7520   41.9870 C   0  0  0  0  0  0  0  0  0  0  0  0
   47.9000   35.2470   41.9210 C   0  0  0  0  0  0  0  0  0  0  0  0
   48.6100   35.0540   40.7500 C   0  0  0  0  0  0  0  0  0  0  0  0
   48.0430   34.3960   39.6980 C   0  0  0  0  0  0  0  0  0  0  0  0
   46.7670   33.8990   39.7390 C   0  0  0  0  0  0  0  0  0  0  0  0
   46.0480   34.0960   40.9300 C   0  0  0  0  0  0  0  0  0  0  0  0
   44.5090   36.2040   44.7710 C   0  0  0  0  0  0  0  0  0  0  0  0
   45.1500   36.0920   43.5140 C   0  0  0  0  0  0  0  0  0  0  0  0
   45.8980   34.9780   43.2440 C   0  0  0  0  0  0  0  0  0  0  0  0
   45.9790   34.0290   44.2230 N   0  0  0  0  0  0  0  0  0  0  0  0
   45.3650   34.1380   45.4200 C   0  0  0  0  0  0  0  0  0  0  0  0
   44.6240   35.2310   45.7020 N   0  0  0  0  0  0  0  0  0  0  0  0
   43.4410   34.1230   40.8280 C   0  0  0  0  0  0  0  0  0  0  0  0
   43.1930   35.2050   40.3190 O   0  0  0  0  0  0  0  0  0  0  0  0
   44.7280   33.6320   41.1160 N   0  0  0  0  0  0  0  0  0  0  0  0
   42.3580   33.3000   41.1550 O   0  0  0  0  0  0  0  0  0  0  0  0
   41.1140   33.6190   40.7380 C   0  0  0  0  0  0  0  0  0  0  0  0
   40.5610   34.8080   40.2850 C   0  0  0  0  0  0  0  0  0  0  0  0
   39.2540   34.8850   39.9130 C   0  0  0  0  0  0  0  0  0  0  0  0
   38.5370   33.6040   40.0480 C   0  0  0  0  0  0  0  0  0  0  0  0
   39.7820   32.4570   40.6770 S   0  0  0  0  0  0  0  0  0  0  0  0
   48.3480   35.7771   42.7744 H   0  0  0  0  0  0  0  0  0  0  0  0
   49.6390   35.4337   40.6663 H   0  0  0  0  0  0  0  0  0  0  0  0
   48.6339   34.2591   38.7803 H   0  0  0  0  0  0  0  0  0  0  0  0
   46.3264   33.3709   38.8805 H   0  0  0  0  0  0  0  0  0  0  0  0
   43.9074   37.0976   44.9938 H   0  0  0  0  0  0  0  0  0  0  0  0
   45.0483   36.8900   42.7638 H   0  0  0  0  0  0  0  0  0  0  0  0
   45.4683   33.3362   46.1660 H   0  0  0  0  0  0  0  0  0  0  0  0
   44.6999   32.7098   41.5739 H   0  0  0  0  0  0  0  0  0  0  0  0
   41.1919   35.7071   40.2252 H   0  0  0  0  0  0  0  0  0  0  0  0
   38.7809   35.8089   39.5488 H   0  0  0  0  0  0  0  0  0  0  0  0
   37.4820   33.3942   39.8177 H   0  0  0  0  0  0  0  0  0  0  0  0
  1  9  1  0
  2  1  2  0
  3  2  1  0
  4  5  1  0
  4  3  2  0
  5  6  2  0
  6 15  1  0
  6  1  1  0
  7 12  2  0
  8  7  1  0
  9  8  2  0
  9 10  1  0
 10 11  2  0
 11 12  1  0
 13 15  1  0
 13 16  1  0
 14 13  2  0
 17 16  1  0
 18 17  2  0
 19 20  2  0
 19 18  1  0
 20 21  1  0
 21 17  1  0
  2 22  1  0
  3 23  1  0
  4 24  1  0
  5 25  1  0
  7 26  1  0
  8 27  1  0
 11 28  1  0
 15 29  1  0
 18 30  1  0
 19 31  1  0
 20 32  1  0
M  ISO  8  22  14  23  14  24  14  25  14  26  14  27  14  28  14  30  14
M  ISO  2  31  14  32  14
M  END
>  <minimizedAffinity>  (1) 
-6.41488647

>  <minimizedRMSD>  (1) 
0.223370209

$$$$
