
     RDKit          3D

 27 28  0  0  0  0  0  0  0  0999 V2000
   46.6210   34.7620   41.9890 C   0  0  0  0  0  0  0  0  0  0  0  0
   47.9120   35.2780   41.9300 C   0  0  0  0  0  0  0  0  0  0  0  0
   48.6270   35.0910   40.7570 C   0  0  0  0  0  0  0  0  0  0  0  0
   48.0690   34.4220   39.7080 C   0  0  0  0  0  0  0  0  0  0  0  0
   46.8060   33.9070   39.7450 C   0  0  0  0  0  0  0  0  0  0  0  0
   46.0760   34.0940   40.9320 C   0  0  0  0  0  0  0  0  0  0  0  0
   44.5110   36.1950   44.7680 C   0  0  0  0  0  0  0  0  0  0  0  0
   45.1550   36.0910   43.5130 C   0  0  0  0  0  0  0  0  0  0  0  0
   45.9100   34.9820   43.2440 C   0  0  0  0  0  0  0  0  0  0  0  0
   45.9900   34.0320   44.2220 N   0  0  0  0  0  0  0  0  0  0  0  0
   45.3780   34.1260   45.4170 C   0  0  0  0  0  0  0  0  0  0  0  0
   44.6300   35.2170   45.6980 N   0  0  0  0  0  0  0  0  0  0  0  0
   43.4720   34.0930   40.8400 C   0  0  0  0  0  0  0  0  0  0  0  0
   43.2000   35.1780   40.3520 O   0  0  0  0  0  0  0  0  0  0  0  0
   44.7630   33.6140   41.1250 N   0  0  0  0  0  0  0  0  0  0  0  0
   42.3950   33.2560   41.1430 O   0  0  0  0  0  0  0  0  0  0  0  0
   41.1080   33.6890   40.8500 C   0  0  0  0  0  0  0  0  0  0  0  0
   40.3030   34.0930   41.7020 O   0  0  0  0  0  0  0  0  0  0  0  0
   48.3499   35.8154   42.7841 H   0  0  0  0  0  0  0  0  0  0  0  0
   49.6506   35.4847   40.6720 H   0  0  0  0  0  0  0  0  0  0  0  0
   48.6633   34.2918   38.7915 H   0  0  0  0  0  0  0  0  0  0  0  0
   46.3784   33.3700   38.8854 H   0  0  0  0  0  0  0  0  0  0  0  0
   43.9037   37.0843   44.9926 H   0  0  0  0  0  0  0  0  0  0  0  0
   45.0504   36.8900   42.7642 H   0  0  0  0  0  0  0  0  0  0  0  0
   45.4854   33.3215   46.1595 H   0  0  0  0  0  0  0  0  0  0  0  0
   44.7464   32.6923   41.5845 H   0  0  0  0  0  0  0  0  0  0  0  0
   40.7836   33.6724   39.7990 H   0  0  0  0  0  0  0  0  0  0  0  0
  1  9  1  0
  2  1  2  0
  3  2  1  0
  4  5  1  0
  4  3  2  0
  5  6  2  0
  6 15  1  0
  6  1  1  0
  7 12  2  0
  8  7  1  0
  9  8  2  0
  9 10  1  0
 10 11  2  0
 11 12  1  0
 13 15  1  0
 13 16  1  0
 14 13  2  0
 17 16  1  0
 17 18  2  0
  2 19  1  0
  3 20  1  0
  4 21  1  0
  5 22  1  0
  7 23  1  0
  8 24  1  0
 11 25  1  0
 15 26  1  0
 17 27  1  0
M  ISO  8  19  14  20  14  21  14  22  14  23  14  24  14  25  14  27   6
M  END
>  <minimizedAffinity>  (1) 
-5.41230154

>  <minimizedRMSD>  (1) 
0.416464061

$$$$
