
     RDKit          3D

 29 30  0  0  1  0  0  0  0  0999 V2000
   46.4230   33.9280   43.1260 C   0  0  2  0  0  0  0  0  0  0  0  0
   45.8580   35.0730   42.3890 C   0  0  2  0  0  0  0  0  0  0  0  0
   45.5230   36.2410   43.2580 C   0  0  0  0  0  0  0  0  0  0  0  0
   44.6220   35.8840   44.4180 C   0  0  0  0  0  0  0  0  0  0  0  0
   44.9620   34.5550   45.0620 C   0  0  0  0  0  0  0  0  0  0  0  0
   46.3340   34.0750   44.6400 C   0  0  0  0  0  0  0  0  0  0  0  0
   47.8460   33.6950   42.8070 C   0  0  0  0  0  0  0  0  0  0  0  0
   48.6550   34.8500   42.6950 C   0  0  0  0  0  0  0  0  0  0  0  0
   50.0170   34.7140   42.3970 C   0  0  0  0  0  0  0  0  0  0  0  0
   50.4890   33.4410   42.2300 N   0  0  0  0  0  0  0  0  0  0  0  0
   49.6870   32.3490   42.3440 C   0  0  0  0  0  0  0  0  0  0  0  0
   48.3800   32.4840   42.6300 N   0  0  0  0  0  0  0  0  0  0  0  0
   44.6370   34.6830   41.5670 C   0  0  0  0  0  0  0  0  0  0  0  0
   43.8620   35.8070   41.3360 F   0  0  0  0  0  0  0  0  0  0  0  0
   43.8580   33.7300   42.1260 F   0  0  0  0  0  0  0  0  0  0  0  0
   45.0980   34.1620   40.3560 F   0  0  0  0  0  0  0  0  0  0  0  0
   45.8044   33.0801   42.7968 H   0  0  0  0  0  0  0  0  0  0  0  0
   46.6640   35.3876   41.7097 H   0  0  0  0  0  0  0  0  0  0  0  0
   46.4588   36.6582   43.6583 H   0  0  0  0  0  0  0  0  0  0  0  0
   44.9795   36.9660   42.6343 H   0  0  0  0  0  0  0  0  0  0  0  0
   44.7076   36.6722   45.1805 H   0  0  0  0  0  0  0  0  0  0  0  0
   43.6005   35.7978   44.0191 H   0  0  0  0  0  0  0  0  0  0  0  0
   44.9438   34.6716   46.1557 H   0  0  0  0  0  0  0  0  0  0  0  0
   44.2189   33.8116   44.7377 H   0  0  0  0  0  0  0  0  0  0  0  0
   46.5327   33.0995   45.1078 H   0  0  0  0  0  0  0  0  0  0  0  0
   47.0782   34.8179   44.9629 H   0  0  0  0  0  0  0  0  0  0  0  0
   48.2174   35.8486   42.8410 H   0  0  0  0  0  0  0  0  0  0  0  0
   50.6759   35.5896   42.3018 H   0  0  0  0  0  0  0  0  0  0  0  0
   50.1118   31.3445   42.2008 H   0  0  0  0  0  0  0  0  0  0  0  0
  1  6  1  0
  2  1  1  0
  2  3  1  0
  3  4  1  0
  4  5  1  0
  6  5  1  0
  7  1  1  0
  8  7  2  0
  9  8  1  0
 10 11  1  0
 10  9  2  0
 11 12  2  0
 12  7  1  0
 13 15  1  0
 13  2  1  0
 14 13  1  0
 16 13  1  0
  1 17  1  6
  2 18  1  6
  3 19  1  0
  3 20  1  0
  4 21  1  0
  4 22  1  0
  5 23  1  0
  5 24  1  0
  6 25  1  0
  6 26  1  0
  8 27  1  0
  9 28  1  0
 11 29  1  0
M  ISO  8  17  13  18  13  19  13  20  13  21  13  22  13  23  13  24  13
M  ISO  5  25  13  26  13  27  14  28  14  29  14
M  END
>  <minimizedAffinity>  (1) 
-4.76901579

>  <minimizedRMSD>  (1) 
2.19313407

$$$$
