
     RDKit          3D

 29 30  0  0  1  0  0  0  0  0999 V2000
   46.7460   33.2970   43.0930 C   0  0  2  0  0  0  0  0  0  0  0  0
   45.9600   34.1890   42.2280 C   0  0  1  0  0  0  0  0  0  0  0  0
   45.5940   35.4980   42.8760 C   0  0  0  0  0  0  0  0  0  0  0  0
   44.8070   35.2610   44.1490 C   0  0  0  0  0  0  0  0  0  0  0  0
   45.3760   34.1500   45.0090 C   0  0  0  0  0  0  0  0  0  0  0  0
   46.7520   33.7520   44.5470 C   0  0  0  0  0  0  0  0  0  0  0  0
   48.1500   33.1520   42.6750 C   0  0  0  0  0  0  0  0  0  0  0  0
   48.9800   34.2740   42.8870 C   0  0  0  0  0  0  0  0  0  0  0  0
   50.3300   34.2190   42.5220 C   0  0  0  0  0  0  0  0  0  0  0  0
   50.7640   33.0370   41.9630 N   0  0  0  0  0  0  0  0  0  0  0  0
   49.9460   31.9780   41.7730 C   0  0  0  0  0  0  0  0  0  0  0  0
   48.6560   32.0430   42.1270 N   0  0  0  0  0  0  0  0  0  0  0  0
   46.3730   34.3000   40.8020 C   0  0  0  0  0  0  0  0  0  0  0  0
   46.2372   32.3268   42.9943 H   0  0  0  0  0  0  0  0  0  0  0  0
   45.0177   33.6305   42.1273 H   0  0  0  0  0  0  0  0  0  0  0  0
   46.5134   36.0516   43.1171 H   0  0  0  0  0  0  0  0  0  0  0  0
   44.9728   36.0780   42.1777 H   0  0  0  0  0  0  0  0  0  0  0  0
   44.8054   36.1910   44.7365 H   0  0  0  0  0  0  0  0  0  0  0  0
   43.7927   34.9557   43.8523 H   0  0  0  0  0  0  0  0  0  0  0  0
   45.4343   34.4974   46.0511 H   0  0  0  0  0  0  0  0  0  0  0  0
   44.7152   33.2744   44.9275 H   0  0  0  0  0  0  0  0  0  0  0  0
   47.1156   32.9273   45.1776 H   0  0  0  0  0  0  0  0  0  0  0  0
   47.4099   34.6297   44.6300 H   0  0  0  0  0  0  0  0  0  0  0  0
   48.5671   35.1886   43.3376 H   0  0  0  0  0  0  0  0  0  0  0  0
   51.0072   35.0725   42.6731 H   0  0  0  0  0  0  0  0  0  0  0  0
   50.3429   31.0555   41.3241 H   0  0  0  0  0  0  0  0  0  0  0  0
   47.4341   34.5852   40.7487 H   0  0  0  0  0  0  0  0  0  0  0  0
   46.2282   33.3311   40.3018 H   0  0  0  0  0  0  0  0  0  0  0  0
   45.7619   35.0658   40.3018 H   0  0  0  0  0  0  0  0  0  0  0  0
  1  6  1  0
  2  3  1  0
  2  1  1  0
  3  4  1  0
  4  5  1  0
  6  5  1  0
  7  8  2  0
  7  1  1  0
  9  8  1  0
 10  9  2  0
 11 10  1  0
 11 12  2  0
 12  7  1  0
 13  2  1  0
  1 14  1  1
  2 15  1  6
  3 16  1  0
  3 17  1  0
  4 18  1  0
  4 19  1  0
  5 20  1  0
  5 21  1  0
  6 22  1  0
  6 23  1  0
  8 24  1  0
  9 25  1  0
 11 26  1  0
 13 27  1  0
 13 28  1  0
 13 29  1  0
M  ISO  8  14  13  15  13  16  13  17  13  18  13  19  13  20  13  21  13
M  ISO  8  22  13  23  13  24  14  25  14  26  14  27   8  28   8  29   8
M  END
>  <minimizedAffinity>  (1) 
-4.02052593

>  <minimizedRMSD>  (1) 
1.64690959

$$$$
