
     RDKit          3D

 27 28  0  0  1  0  0  0  0  0999 V2000
   46.5370   33.6240   42.9590 C   0  0  2  0  0  0  0  0  0  0  0  0
   45.8850   34.6920   42.1780 C   0  0  2  0  0  0  0  0  0  0  0  0
   45.5500   35.9110   42.9690 C   0  0  0  0  0  0  0  0  0  0  0  0
   44.7470   35.6140   44.2200 C   0  0  0  0  0  0  0  0  0  0  0  0
   45.1670   34.3400   44.9190 C   0  0  0  0  0  0  0  0  0  0  0  0
   46.5210   33.8710   44.4610 C   0  0  0  0  0  0  0  0  0  0  0  0
   47.9430   33.4140   42.5660 C   0  0  0  0  0  0  0  0  0  0  0  0
   48.8160   34.4920   42.8150 C   0  0  0  0  0  0  0  0  0  0  0  0
   50.1740   34.3960   42.4870 C   0  0  0  0  0  0  0  0  0  0  0  0
   50.5740   33.2030   41.9240 N   0  0  0  0  0  0  0  0  0  0  0  0
   49.7170   32.1840   41.6960 C   0  0  0  0  0  0  0  0  0  0  0  0
   48.4190   32.2930   42.0150 N   0  0  0  0  0  0  0  0  0  0  0  0
   44.3340   34.0680   41.4310 S   0  0  0  0  0  0  0  0  0  0  0  0
   45.9362   32.7314   42.7301 H   0  0  0  0  0  0  0  0  0  0  0  0
   46.6222   34.9817   41.4147 H   0  0  0  0  0  0  0  0  0  0  0  0
   46.4880   36.4033   43.2653 H   0  0  0  0  0  0  0  0  0  0  0  0
   44.9281   36.5535   42.3284 H   0  0  0  0  0  0  0  0  0  0  0  0
   44.8714   36.4527   44.9207 H   0  0  0  0  0  0  0  0  0  0  0  0
   43.7003   35.4819   43.9085 H   0  0  0  0  0  0  0  0  0  0  0  0
   45.2018   34.5236   46.0030 H   0  0  0  0  0  0  0  0  0  0  0  0
   44.4335   33.5579   44.6735 H   0  0  0  0  0  0  0  0  0  0  0  0
   46.7719   32.9350   44.9816 H   0  0  0  0  0  0  0  0  0  0  0  0
   47.2586   34.6531   44.6940 H   0  0  0  0  0  0  0  0  0  0  0  0
   48.4280   35.4152   43.2701 H   0  0  0  0  0  0  0  0  0  0  0  0
   50.8781   35.2216   42.6675 H   0  0  0  0  0  0  0  0  0  0  0  0
   50.0885   31.2530   41.2429 H   0  0  0  0  0  0  0  0  0  0  0  0
   43.4584   33.7157   42.4240 H   0  0  0  0  0  0  0  0  0  0  0  0
  1  6  1  0
  2  1  1  0
  2  3  1  0
  3  4  1  0
  4  5  1  0
  6  5  1  0
  7  8  2  0
  7  1  1  0
  9  8  1  0
 10  9  2  0
 11 10  1  0
 11 12  2  0
 12  7  1  0
 13  2  1  0
  1 14  1  1
  2 15  1  6
  3 16  1  0
  3 17  1  0
  4 18  1  0
  4 19  1  0
  5 20  1  0
  5 21  1  0
  6 22  1  0
  6 23  1  0
  8 24  1  0
  9 25  1  0
 11 26  1  0
 13 27  1  0
M  ISO  8  14  13  15  13  16  13  17  13  18  13  19  13  20  13  21  13
M  ISO  6  22  13  23  13  24  14  25  14  26  14  27  11
M  END
>  <minimizedAffinity>  (1) 
-3.99281049

>  <minimizedRMSD>  (1) 
1.82226384

$$$$
