
     RDKit          3D

 45 47  0  0  1  0  0  0  0  0999 V2000
   46.0550   33.8200   43.1910 C   0  0  2  0  0  0  0  0  0  0  0  0
   45.2480   34.8760   42.5180 C   0  0  2  0  0  0  0  0  0  0  0  0
   45.0830   36.0950   43.3500 C   0  0  0  0  0  0  0  0  0  0  0  0
   44.5770   35.8360   44.7440 C   0  0  0  0  0  0  0  0  0  0  0  0
   45.0790   34.5560   45.3470 C   0  0  0  0  0  0  0  0  0  0  0  0
   46.3300   34.0570   44.6490 C   0  0  0  0  0  0  0  0  0  0  0  0
   42.9690   35.3150   41.5200 C   0  0  1  0  0  0  0  0  0  0  0  0
   43.9060   34.3200   42.0980 C   0  0  1  0  0  0  0  0  0  0  0  0
   44.1290   33.3210   41.1580 O   0  0  0  0  0  0  0  0  0  0  0  0
   43.7750   33.8100   39.9130 C   0  0  0  0  0  0  0  0  0  0  0  0
   42.5090   34.5830   40.2530 C   0  0  2  0  0  0  0  0  0  0  0  0
   41.8570   35.5590   42.3010 O   0  0  0  0  0  0  0  0  0  0  0  0
   42.1880   35.5050   39.2680 O   0  0  0  0  0  0  0  0  0  0  0  0
   40.8130   35.5640   39.0600 C   0  0  0  0  0  0  0  0  0  0  0  0
   40.3700   34.8580   37.8120 C   0  0  0  0  0  0  0  0  0  0  0  0
   47.3380   33.5680   42.5050 C   0  0  0  0  0  0  0  0  0  0  0  0
   48.4030   34.3520   42.9510 C   0  0  0  0  0  0  0  0  0  0  0  0
   49.6780   34.2050   42.3820 C   0  0  0  0  0  0  0  0  0  0  0  0
   49.7770   33.2490   41.3770 N   0  0  0  0  0  0  0  0  0  0  0  0
   48.7190   32.5120   40.9740 C   0  0  0  0  0  0  0  0  0  0  0  0
   47.4940   32.6660   41.5340 N   0  0  0  0  0  0  0  0  0  0  0  0
   45.4059   32.9346   43.1223 H   0  0  0  0  0  0  0  0  0  0  0  0
   45.8053   35.1879   41.6224 H   0  0  0  0  0  0  0  0  0  0  0  0
   46.0605   36.5936   43.4265 H   0  0  0  0  0  0  0  0  0  0  0  0
   44.3224   36.7135   42.8511 H   0  0  0  0  0  0  0  0  0  0  0  0
   44.8943   36.6696   45.3878 H   0  0  0  0  0  0  0  0  0  0  0  0
   43.4827   35.7478   44.6745 H   0  0  0  0  0  0  0  0  0  0  0  0
   45.3086   34.7286   46.4088 H   0  0  0  0  0  0  0  0  0  0  0  0
   44.2953   33.7929   45.2309 H   0  0  0  0  0  0  0  0  0  0  0  0
   46.6540   33.1147   45.1149 H   0  0  0  0  0  0  0  0  0  0  0  0
   47.1201   34.8163   44.7450 H   0  0  0  0  0  0  0  0  0  0  0  0
   43.4481   36.2966   41.3894 H   0  0  0  0  0  0  0  0  0  0  0  0
   43.4221   33.9490   43.0136 H   0  0  0  0  0  0  0  0  0  0  0  0
   43.5722   32.9956   39.2020 H   0  0  0  0  0  0  0  0  0  0  0  0
   44.5554   34.4113   39.4236 H   0  0  0  0  0  0  0  0  0  0  0  0
   41.6139   33.9526   40.3600 H   0  0  0  0  0  0  0  0  0  0  0  0
   42.1069   35.5042   43.2574 H   0  0  0  0  0  0  0  0  0  0  0  0
   40.3095   35.1000   39.9209 H   0  0  0  0  0  0  0  0  0  0  0  0
   40.5462   36.6251   38.9459 H   0  0  0  0  0  0  0  0  0  0  0  0
   39.8034   33.9550   38.0831 H   0  0  0  0  0  0  0  0  0  0  0  0
   39.7302   35.5281   37.2191 H   0  0  0  0  0  0  0  0  0  0  0  0
   41.2517   34.5734   37.2191 H   0  0  0  0  0  0  0  0  0  0  0  0
   48.2427   35.0886   43.7521 H   0  0  0  0  0  0  0  0  0  0  0  0
   50.5400   34.8052   42.7089 H   0  0  0  0  0  0  0  0  0  0  0  0
   48.8545   31.7701   40.1733 H   0  0  0  0  0  0  0  0  0  0  0  0
  1  6  1  0
  2  1  1  0
  2  3  1  0
  3  4  1  0
  4  5  1  0
  6  5  1  0
  7  8  1  0
  7 12  1  0
  8  2  1  0
  9  8  1  0
 10 11  1  0
 10  9  1  0
 11  7  1  0
 13 11  1  0
 14 13  1  0
 15 14  1  0
 16 17  2  0
 16  1  1  0
 18 17  1  0
 19 18  2  0
 20 19  1  0
 20 21  2  0
 21 16  1  0
  1 22  1  1
  2 23  1  6
  3 24  1  0
  3 25  1  0
  4 26  1  0
  4 27  1  0
  5 28  1  0
  5 29  1  0
  6 30  1  0
  6 31  1  0
  7 32  1  6
  8 33  1  1
 10 34  1  0
 10 35  1  0
 11 36  1  1
 12 37  1  0
 14 38  1  0
 14 39  1  0
 15 40  1  0
 15 41  1  0
 15 42  1  0
 17 43  1  0
 18 44  1  0
 20 45  1  0
M  ISO  8  22  13  23  13  24  13  25  13  26  13  27  13  28  13  29  13
M  ISO  8  30  13  31  13  32  13  33  13  34  13  35  13  36  13  37   3
M  ISO  8  38   8  39   8  40   8  41   8  42   8  43  14  44  14  45  14
M  END
>  <minimizedAffinity>  (1) 
-5.77695417

>  <minimizedRMSD>  (1) 
0.534558117

$$$$
