
     RDKit          3D

 41 43  0  0  1  0  0  0  0  0999 V2000
   46.0610   33.8160   43.2010 C   0  0  2  0  0  0  0  0  0  0  0  0
   45.2550   34.8700   42.5230 C   0  0  2  0  0  0  0  0  0  0  0  0
   45.0830   36.0900   43.3490 C   0  0  0  0  0  0  0  0  0  0  0  0
   44.5790   35.8350   44.7460 C   0  0  0  0  0  0  0  0  0  0  0  0
   45.0780   34.5560   45.3520 C   0  0  0  0  0  0  0  0  0  0  0  0
   46.3330   34.0600   44.6570 C   0  0  0  0  0  0  0  0  0  0  0  0
   42.9840   35.2950   41.5000 C   0  0  1  0  0  0  0  0  0  0  0  0
   43.9150   34.3080   42.1020 C   0  0  1  0  0  0  0  0  0  0  0  0
   44.1430   33.2920   41.1800 O   0  0  0  0  0  0  0  0  0  0  0  0
   43.8020   33.7630   39.9250 C   0  0  0  0  0  0  0  0  0  0  0  0
   42.5320   34.5390   40.2410 C   0  0  2  0  0  0  0  0  0  0  0  0
   41.8680   35.5560   42.2650 O   0  0  0  0  0  0  0  0  0  0  0  0
   42.2220   35.4470   39.2380 O   0  0  0  0  0  0  0  0  0  0  0  0
   40.9410   35.6210   38.7420 C   0  0  0  0  0  0  0  0  0  0  0  0
   40.6720   35.4320   37.5260 O   0  0  0  0  0  0  0  0  0  0  0  0
   47.3480   33.5680   42.5200 C   0  0  0  0  0  0  0  0  0  0  0  0
   48.4100   34.3590   42.9620 C   0  0  0  0  0  0  0  0  0  0  0  0
   49.6850   34.2140   42.3920 C   0  0  0  0  0  0  0  0  0  0  0  0
   49.7860   33.2550   41.3920 N   0  0  0  0  0  0  0  0  0  0  0  0
   48.7330   32.5100   40.9920 C   0  0  0  0  0  0  0  0  0  0  0  0
   47.5150   32.6650   41.5540 N   0  0  0  0  0  0  0  0  0  0  0  0
   45.4144   32.9287   43.1329 H   0  0  0  0  0  0  0  0  0  0  0  0
   45.8160   35.1822   41.6298 H   0  0  0  0  0  0  0  0  0  0  0  0
   46.0575   36.5949   43.4225 H   0  0  0  0  0  0  0  0  0  0  0  0
   44.3177   36.7008   42.8478 H   0  0  0  0  0  0  0  0  0  0  0  0
   44.8998   36.6695   45.3869 H   0  0  0  0  0  0  0  0  0  0  0  0
   43.4845   35.7487   44.6782 H   0  0  0  0  0  0  0  0  0  0  0  0
   45.3032   34.7287   46.4148 H   0  0  0  0  0  0  0  0  0  0  0  0
   44.2954   33.7919   45.2350 H   0  0  0  0  0  0  0  0  0  0  0  0
   46.6611   33.1212   45.1271 H   0  0  0  0  0  0  0  0  0  0  0  0
   47.1192   34.8235   44.7508 H   0  0  0  0  0  0  0  0  0  0  0  0
   43.4662   36.2733   41.3571 H   0  0  0  0  0  0  0  0  0  0  0  0
   43.4242   33.9526   43.0200 H   0  0  0  0  0  0  0  0  0  0  0  0
   43.6075   32.9385   39.2233 H   0  0  0  0  0  0  0  0  0  0  0  0
   44.5869   34.3582   39.4355 H   0  0  0  0  0  0  0  0  0  0  0  0
   41.6364   33.9098   40.3507 H   0  0  0  0  0  0  0  0  0  0  0  0
   42.1053   35.5005   43.2245 H   0  0  0  0  0  0  0  0  0  0  0  0
   40.1383   35.9320   39.4268 H   0  0  0  0  0  0  0  0  0  0  0  0
   48.2473   35.0986   43.7598 H   0  0  0  0  0  0  0  0  0  0  0  0
   50.5452   34.8186   42.7152 H   0  0  0  0  0  0  0  0  0  0  0  0
   48.8698   31.7644   40.1949 H   0  0  0  0  0  0  0  0  0  0  0  0
  1  6  1  0
  2  1  1  0
  2  3  1  0
  3  4  1  0
  4  5  1  0
  6  5  1  0
  7  8  1  0
  7 12  1  0
  8  2  1  0
  9  8  1  0
 10 11  1  0
 10  9  1  0
 11  7  1  0
 13 11  1  0
 14 13  1  0
 15 14  2  0
 16 17  2  0
 16  1  1  0
 18 17  1  0
 19 18  2  0
 20 19  1  0
 20 21  2  0
 21 16  1  0
  1 22  1  1
  2 23  1  6
  3 24  1  0
  3 25  1  0
  4 26  1  0
  4 27  1  0
  5 28  1  0
  5 29  1  0
  6 30  1  0
  6 31  1  0
  7 32  1  6
  8 33  1  1
 10 34  1  0
 10 35  1  0
 11 36  1  1
 12 37  1  0
 14 38  1  0
 17 39  1  0
 18 40  1  0
 20 41  1  0
M  ISO  8  22  13  23  13  24  13  25  13  26  13  27  13  28  13  29  13
M  ISO  8  30  13  31  13  32  13  33  13  34  13  35  13  36  13  37   3
M  ISO  4  38   6  39  14  40  14  41  14
M  END
>  <minimizedAffinity>  (1) 
-5.63458872

>  <minimizedRMSD>  (1) 
0.456087232

$$$$
