
     RDKit          3D

 27 28  0  0  0  0  0  0  0  0999 V2000
   41.5210   35.7080   39.8350 C   0  0  0  0  0  0  0  0  0  0  0  0
   40.6730   35.4520   37.1980 F   0  0  0  0  0  0  0  0  0  0  0  0
   39.9480   34.8080   38.1510 C   0  0  0  0  0  0  0  0  0  0  0  0
   40.3450   34.9150   39.4880 C   0  0  0  0  0  0  0  0  0  0  0  0
   39.5210   34.2150   40.3320 C   0  0  0  0  0  0  0  0  0  0  0  0
   38.4150   33.4660   40.0220 C   0  0  0  0  0  0  0  0  0  0  0  0
   38.1140   33.4310   38.6570 C   0  0  0  0  0  0  0  0  0  0  0  0
   38.8550   34.0880   37.6900 C   0  0  0  0  0  0  0  0  0  0  0  0
   43.3820   35.4870   41.4300 C   0  0  0  0  0  0  0  0  0  0  0  0
   42.1600   35.1790   41.0760 C   0  0  0  0  0  0  0  0  0  0  0  0
   44.2660   35.8230   43.7660 C   0  0  0  0  0  0  0  0  0  0  0  0
   44.0760   35.0140   42.6230 C   0  0  0  0  0  0  0  0  0  0  0  0
   44.5800   33.7180   42.6510 C   0  0  0  0  0  0  0  0  0  0  0  0
   45.2260   33.3120   43.7830 N   0  0  0  0  0  0  0  0  0  0  0  0
   45.3890   34.1000   44.8520 C   0  0  0  0  0  0  0  0  0  0  0  0
   44.9060   35.3530   44.8340 N   0  0  0  0  0  0  0  0  0  0  0  0
   41.2175   36.7522   40.0008 H   0  0  0  0  0  0  0  0  0  0  0  0
   42.2455   35.6505   39.0093 H   0  0  0  0  0  0  0  0  0  0  0  0
   39.7821   34.2605   41.3996 H   0  0  0  0  0  0  0  0  0  0  0  0
   37.8173   32.9391   40.7804 H   0  0  0  0  0  0  0  0  0  0  0  0
   37.2389   32.8484   38.3334 H   0  0  0  0  0  0  0  0  0  0  0  0
   38.5937   34.0422   36.6225 H   0  0  0  0  0  0  0  0  0  0  0  0
   43.9375   36.1657   40.7661 H   0  0  0  0  0  0  0  0  0  0  0  0
   41.5796   34.5019   41.7200 H   0  0  0  0  0  0  0  0  0  0  0  0
   43.8804   36.8532   43.7730 H   0  0  0  0  0  0  0  0  0  0  0  0
   44.4621   33.0432   41.7904 H   0  0  0  0  0  0  0  0  0  0  0  0
   45.9160   33.7234   45.7411 H   0  0  0  0  0  0  0  0  0  0  0  0
  1 10  1  0
  2  3  1  0
  3  4  2  0
  4  1  1  0
  4  5  1  0
  6  5  2  0
  7  6  1  0
  8  3  1  0
  8  7  2  0
  9 12  1  0
 10  9  2  0
 11 16  2  0
 12 13  2  0
 12 11  1  0
 13 14  1  0
 14 15  2  0
 16 15  1  0
  1 17  1  0
  1 18  1  0
  5 19  1  0
  6 20  1  0
  7 21  1  0
  8 22  1  0
  9 23  1  0
 10 24  1  0
 11 25  1  0
 13 26  1  0
 15 27  1  0
M  ISO  8  17   8  18   8  19  14  20  14  21  14  22  14  25  14  26  14
M  ISO  1  27  14
M  END
>  <minimizedAffinity>  (1) 
-5.49905014

>  <minimizedRMSD>  (1) 
1.64618897

$$$$
