
     RDKit          3D

 41 44  0  0  0  0  0  0  0  0999 V2000
   44.7200   35.0450   43.9560 C   0  0  0  0  0  0  0  0  0  0  0  0
   44.1570   34.5220   42.7800 C   0  0  0  0  0  0  0  0  0  0  0  0
   44.3700   33.1830   42.5150 C   0  0  0  0  0  0  0  0  0  0  0  0
   45.1100   32.4700   43.4130 N   0  0  0  0  0  0  0  0  0  0  0  0
   45.6370   32.9920   44.5270 C   0  0  0  0  0  0  0  0  0  0  0  0
   45.4310   34.2910   44.7870 N   0  0  0  0  0  0  0  0  0  0  0  0
   47.0610   31.0400   45.0690 C   0  0  0  0  0  0  0  0  0  0  0  0
   46.4230   32.1960   45.4640 C   0  0  0  0  0  0  0  0  0  0  0  0
   46.5620   32.5620   46.7690 C   0  0  0  0  0  0  0  0  0  0  0  0
   47.3080   31.8020   47.6460 C   0  0  0  0  0  0  0  0  0  0  0  0
   47.6050   31.9250   48.9560 N   0  0  0  0  0  0  0  0  0  0  0  0
   48.3860   30.9040   49.3640 C   0  0  0  0  0  0  0  0  0  0  0  0
   48.5930   30.0980   48.2640 C   0  0  0  0  0  0  0  0  0  0  0  0
   47.9250   30.6510   47.1920 C   0  0  0  0  0  0  0  0  0  0  0  0
   47.8270   30.2220   45.8800 C   0  0  0  0  0  0  0  0  0  0  0  0
   43.3750   35.3340   41.8590 C   0  0  0  0  0  0  0  0  0  0  0  0
   42.0910   35.2150   41.6310 C   0  0  0  0  0  0  0  0  0  0  0  0
   41.3620   36.0930   40.6660 C   0  0  0  0  0  0  0  0  0  0  0  0
   41.5820   35.9470   37.8920 F   0  0  0  0  0  0  0  0  0  0  0  0
   40.5550   35.2620   38.4810 C   0  0  0  0  0  0  0  0  0  0  0  0
   40.4280   35.3220   39.8670 C   0  0  0  0  0  0  0  0  0  0  0  0
   39.3580   34.5900   40.3240 C   0  0  0  0  0  0  0  0  0  0  0  0
   38.4590   33.8520   39.5880 C   0  0  0  0  0  0  0  0  0  0  0  0
   38.6850   33.8660   38.2170 C   0  0  0  0  0  0  0  0  0  0  0  0
   39.7140   34.5520   37.6190 C   0  0  0  0  0  0  0  0  0  0  0  0
   44.5679   36.1078   44.1952 H   0  0  0  0  0  0  0  0  0  0  0  0
   43.9578   32.7084   41.6123 H   0  0  0  0  0  0  0  0  0  0  0  0
   46.9514   30.7415   44.0160 H   0  0  0  0  0  0  0  0  0  0  0  0
   46.0715   33.4783   47.1292 H   0  0  0  0  0  0  0  0  0  0  0  0
   47.2802   32.6926   49.5611 H   0  0  0  0  0  0  0  0  0  0  0  0
   48.7815   30.7448   50.3780 H   0  0  0  0  0  0  0  0  0  0  0  0
   49.1884   29.1733   48.2452 H   0  0  0  0  0  0  0  0  0  0  0  0
   48.3167   29.3079   45.5131 H   0  0  0  0  0  0  0  0  0  0  0  0
   43.9111   36.1183   41.3045 H   0  0  0  0  0  0  0  0  0  0  0  0
   41.5276   34.4393   42.1703 H   0  0  0  0  0  0  0  0  0  0  0  0
   40.8083   36.8612   41.2257 H   0  0  0  0  0  0  0  0  0  0  0  0
   42.0961   36.5612   39.9937 H   0  0  0  0  0  0  0  0  0  0  0  0
   39.2007   34.5946   41.4127 H   0  0  0  0  0  0  0  0  0  0  0  0
   37.6287   33.2960   40.0479 H   0  0  0  0  0  0  0  0  0  0  0  0
   38.0002   33.2946   37.5732 H   0  0  0  0  0  0  0  0  0  0  0  0
   39.8667   34.5432   36.5297 H   0  0  0  0  0  0  0  0  0  0  0  0
  1  6  2  0
  2  1  1  0
  3  2  2  0
  3  4  1  0
  4  5  2  0
  5  6  1  0
  5  8  1  0
  7  8  2  0
  7 15  1  0
  8  9  1  0
  9 10  2  0
 10 11  1  0
 11 12  1  0
 13 12  2  0
 14 10  1  0
 14 13  1  0
 15 14  2  0
 16  2  1  0
 17 16  2  0
 18 17  1  0
 19 20  1  0
 20 21  2  0
 21 22  1  0
 21 18  1  0
 23 22  2  0
 24 23  1  0
 25 24  2  0
 25 20  1  0
  1 26  1  0
  3 27  1  0
  7 28  1  0
  9 29  1  0
 11 30  1  0
 12 31  1  0
 13 32  1  0
 15 33  1  0
 16 34  1  0
 17 35  1  0
 18 36  1  0
 18 37  1  0
 22 38  1  0
 23 39  1  0
 24 40  1  0
 25 41  1  0
M  ISO  8  26  14  27  14  28  14  29  14  30   9  31  14  32  14  33  14
M  ISO  6  36   8  37   8  38  14  39  14  40  14  41  14
M  END
>  <minimizedAffinity>  (1) 
-6.95906401

>  <minimizedRMSD>  (1) 
1.54171824

$$$$
