
     RDKit          3D

 42 44  0  0  0  0  0  0  0  0999 V2000
   42.9000   35.8660   41.2330 C   0  0  0  0  0  0  0  0  0  0  0  0
   41.7240   35.3610   41.5160 C   0  0  0  0  0  0  0  0  0  0  0  0
   44.7590   35.7460   42.9150 C   0  0  0  0  0  0  0  0  0  0  0  0
   44.1770   35.3460   41.6900 C   0  0  0  0  0  0  0  0  0  0  0  0
   44.8740   34.4140   40.9110 C   0  0  0  0  0  0  0  0  0  0  0  0
   46.0680   33.9570   41.3850 N   0  0  0  0  0  0  0  0  0  0  0  0
   46.5940   34.3500   42.5400 C   0  0  0  0  0  0  0  0  0  0  0  0
   45.9400   35.2350   43.2920 N   0  0  0  0  0  0  0  0  0  0  0  0
   47.8470   33.7970   42.9220 N   0  0  0  0  0  0  0  0  0  0  0  0
   47.9010   32.4330   43.4090 C   0  0  0  0  0  0  0  0  0  0  0  0
   48.6400   31.6350   42.3450 C   0  0  0  0  0  0  0  0  0  0  0  0
   49.4170   32.5270   41.4040 C   0  0  0  0  0  0  0  0  0  0  0  0
   50.1190   33.6540   42.1180 C   0  0  0  0  0  0  0  0  0  0  0  0
   49.0990   34.5240   42.8550 C   0  0  0  0  0  0  0  0  0  0  0  0
   40.4550   35.9580   41.0020 C   0  0  0  0  0  0  0  0  0  0  0  0
   41.2390   36.1990   38.3460 F   0  0  0  0  0  0  0  0  0  0  0  0
   40.2910   35.2770   38.6300 C   0  0  0  0  0  0  0  0  0  0  0  0
   39.8720   35.1330   39.9610 C   0  0  0  0  0  0  0  0  0  0  0  0
   38.9100   34.1720   40.1200 C   0  0  0  0  0  0  0  0  0  0  0  0
   38.3380   33.3700   39.1500 C   0  0  0  0  0  0  0  0  0  0  0  0
   38.8350   33.6040   37.8530 C   0  0  0  0  0  0  0  0  0  0  0  0
   39.8010   34.5410   37.5660 C   0  0  0  0  0  0  0  0  0  0  0  0
   42.9218   36.7611   40.5941 H   0  0  0  0  0  0  0  0  0  0  0  0
   41.6698   34.4666   42.1541 H   0  0  0  0  0  0  0  0  0  0  0  0
   44.2438   36.4751   43.5576 H   0  0  0  0  0  0  0  0  0  0  0  0
   44.4719   34.0626   39.9494 H   0  0  0  0  0  0  0  0  0  0  0  0
   48.4440   32.3899   44.3646 H   0  0  0  0  0  0  0  0  0  0  0  0
   46.8934   32.0293   43.5871 H   0  0  0  0  0  0  0  0  0  0  0  0
   49.3402   30.9463   42.8404 H   0  0  0  0  0  0  0  0  0  0  0  0
   47.8930   31.0862   41.7528 H   0  0  0  0  0  0  0  0  0  0  0  0
   48.7196   32.9560   40.6694 H   0  0  0  0  0  0  0  0  0  0  0  0
   50.1876   31.9088   40.9203 H   0  0  0  0  0  0  0  0  0  0  0  0
   50.8331   33.2367   42.8432 H   0  0  0  0  0  0  0  0  0  0  0  0
   50.6530   34.2710   41.3804 H   0  0  0  0  0  0  0  0  0  0  0  0
   49.4592   34.7395   43.8718 H   0  0  0  0  0  0  0  0  0  0  0  0
   48.9571   35.4761   42.3227 H   0  0  0  0  0  0  0  0  0  0  0  0
   39.7387   36.0481   41.8320 H   0  0  0  0  0  0  0  0  0  0  0  0
   40.6820   36.9469   40.5770 H   0  0  0  0  0  0  0  0  0  0  0  0
   38.5471   34.0190   41.1471 H   0  0  0  0  0  0  0  0  0  0  0  0
   37.5658   32.6183   39.3708 H   0  0  0  0  0  0  0  0  0  0  0  0
   38.4288   33.0052   37.0245 H   0  0  0  0  0  0  0  0  0  0  0  0
   40.1660   34.6973   36.5401 H   0  0  0  0  0  0  0  0  0  0  0  0
  1  2  2  0
  1  4  1  0
  3  8  2  0
  4  3  1  0
  5  6  1  0
  5  4  2  0
  6  7  2  0
  7  9  1  0
  7  8  1  0
  9 10  1  0
 11 10  1  0
 12 13  1  0
 12 11  1  0
 13 14  1  0
 14  9  1  0
 15  2  1  0
 16 17  1  0
 17 18  2  0
 18 19  1  0
 18 15  1  0
 20 19  2  0
 21 20  1  0
 22 21  2  0
 22 17  1  0
  1 23  1  0
  2 24  1  0
  3 25  1  0
  5 26  1  0
 10 27  1  0
 10 28  1  0
 11 29  1  0
 11 30  1  0
 12 31  1  0
 12 32  1  0
 13 33  1  0
 13 34  1  0
 14 35  1  0
 14 36  1  0
 15 37  1  0
 15 38  1  0
 19 39  1  0
 20 40  1  0
 21 41  1  0
 22 42  1  0
M  ISO  8  25  14  26  14  27  13  28  13  29  13  30  13  31  13  32  13
M  ISO  8  33  13  34  13  35  13  36  13  37   8  38   8  39  14  40  14
M  ISO  2  41  14  42  14
M  END
>  <minimizedAffinity>  (1) 
-6.81502295

>  <minimizedRMSD>  (1) 
2.63550091

$$$$
