
     RDKit          3D

 37 39  0  0  0  0  0  0  0  0999 V2000
   44.6850   35.2260   44.8350 C   0  0  0  0  0  0  0  0  0  0  0  0
   44.7510   34.6420   43.5470 C   0  0  0  0  0  0  0  0  0  0  0  0
   45.2480   33.3580   43.4430 C   0  0  0  0  0  0  0  0  0  0  0  0
   45.6420   32.7400   44.5890 N   0  0  0  0  0  0  0  0  0  0  0  0
   45.5720   33.3100   45.8040 C   0  0  0  0  0  0  0  0  0  0  0  0
   45.0930   34.5500   45.9080 N   0  0  0  0  0  0  0  0  0  0  0  0
   46.0040   32.6170   47.0140 C   0  0  0  0  0  0  0  0  0  0  0  0
   47.3360   32.2580   47.1200 C   0  0  0  0  0  0  0  0  0  0  0  0
   47.7300   31.6020   48.2720 C   0  0  0  0  0  0  0  0  0  0  0  0
   46.8460   31.3130   49.2790 C   0  0  0  0  0  0  0  0  0  0  0  0
   45.5130   31.6660   49.1840 C   0  0  0  0  0  0  0  0  0  0  0  0
   45.1070   32.3250   48.0320 C   0  0  0  0  0  0  0  0  0  0  0  0
   44.3030   35.3850   42.3670 C   0  0  0  0  0  0  0  0  0  0  0  0
   43.3490   35.0200   41.5570 C   0  0  0  0  0  0  0  0  0  0  0  0
   42.9280   35.8130   40.3640 C   0  0  0  0  0  0  0  0  0  0  0  0
   42.3710   35.8350   37.6270 F   0  0  0  0  0  0  0  0  0  0  0  0
   41.4170   35.3690   38.4580 C   0  0  0  0  0  0  0  0  0  0  0  0
   41.6590   35.3430   39.8390 C   0  0  0  0  0  0  0  0  0  0  0  0
   40.6030   34.8470   40.5490 C   0  0  0  0  0  0  0  0  0  0  0  0
   39.3930   34.3930   40.0930 C   0  0  0  0  0  0  0  0  0  0  0  0
   39.2560   34.4650   38.6940 C   0  0  0  0  0  0  0  0  0  0  0  0
   40.2340   34.9410   37.8550 C   0  0  0  0  0  0  0  0  0  0  0  0
   44.2932   36.2473   44.9508 H   0  0  0  0  0  0  0  0  0  0  0  0
   45.3226   32.8530   42.4686 H   0  0  0  0  0  0  0  0  0  0  0  0
   48.0542   32.4857   46.3186 H   0  0  0  0  0  0  0  0  0  0  0  0
   48.7829   31.3036   48.3834 H   0  0  0  0  0  0  0  0  0  0  0  0
   47.2038   30.7909   50.1787 H   0  0  0  0  0  0  0  0  0  0  0  0
   44.8016   31.4336   49.9901 H   0  0  0  0  0  0  0  0  0  0  0  0
   44.0533   32.6218   47.9236 H   0  0  0  0  0  0  0  0  0  0  0  0
   44.8157   36.3326   42.1451 H   0  0  0  0  0  0  0  0  0  0  0  0
   42.8250   34.0752   41.7639 H   0  0  0  0  0  0  0  0  0  0  0  0
   42.8268   36.8694   40.6535 H   0  0  0  0  0  0  0  0  0  0  0  0
   43.6923   35.6953   39.5817 H   0  0  0  0  0  0  0  0  0  0  0  0
   40.7433   34.8062   41.6393 H   0  0  0  0  0  0  0  0  0  0  0  0
   38.6043   34.0091   40.7568 H   0  0  0  0  0  0  0  0  0  0  0  0
   38.3118   34.1204   38.2470 H   0  0  0  0  0  0  0  0  0  0  0  0
   40.0919   34.9825   36.7650 H   0  0  0  0  0  0  0  0  0  0  0  0
  1  6  2  0
  2  1  1  0
  3  2  2  0
  3  4  1  0
  4  5  2  0
  5  6  1  0
  5  7  1  0
  7  8  2  0
  7 12  1  0
  8  9  1  0
  9 10  2  0
 11 10  1  0
 12 11  2  0
 13  2  1  0
 14 13  2  0
 15 14  1  0
 16 17  1  0
 17 18  2  0
 18 15  1  0
 18 19  1  0
 20 19  2  0
 21 20  1  0
 22 17  1  0
 22 21  2  0
  1 23  1  0
  3 24  1  0
  8 25  1  0
  9 26  1  0
 10 27  1  0
 11 28  1  0
 12 29  1  0
 13 30  1  0
 14 31  1  0
 15 32  1  0
 15 33  1  0
 19 34  1  0
 20 35  1  0
 21 36  1  0
 22 37  1  0
M  ISO  8  23  14  24  14  25  14  26  14  27  14  28  14  29  14  32   8
M  ISO  5  33   8  34  14  35  14  36  14  37  14
M  END
>  <minimizedAffinity>  (1) 
-6.74129963

>  <minimizedRMSD>  (1) 
1.50454819

$$$$
