
     RDKit          3D

 39 41  0  0  0  0  0  0  0  0999 V2000
   42.7640   35.4730   41.4500 C   0  0  0  0  0  0  0  0  0  0  0  0
   41.4710   35.5350   41.6030 C   0  0  0  0  0  0  0  0  0  0  0  0
   44.2500   35.5150   43.4500 C   0  0  0  0  0  0  0  0  0  0  0  0
   43.7060   34.8110   42.3650 C   0  0  0  0  0  0  0  0  0  0  0  0
   44.0710   33.4860   42.1700 C   0  0  0  0  0  0  0  0  0  0  0  0
   44.9490   32.9530   43.0660 N   0  0  0  0  0  0  0  0  0  0  0  0
   45.4620   33.6390   44.1020 C   0  0  0  0  0  0  0  0  0  0  0  0
   45.1090   34.9150   44.2860 N   0  0  0  0  0  0  0  0  0  0  0  0
   46.3680   32.9470   44.9530 N   0  0  0  0  0  0  0  0  0  0  0  0
   46.5640   33.1920   46.3480 C   0  0  0  0  0  0  0  0  0  0  0  0
   46.7710   31.8130   46.9210 C   0  0  0  0  0  0  0  0  0  0  0  0
   47.0330   30.9020   45.7390 C   0  0  0  0  0  0  0  0  0  0  0  0
   47.2780   31.8540   44.5880 C   0  0  0  0  0  0  0  0  0  0  0  0
   40.5630   36.2180   40.6440 C   0  0  0  0  0  0  0  0  0  0  0  0
   41.1460   36.0090   37.9220 F   0  0  0  0  0  0  0  0  0  0  0  0
   40.1890   35.1810   38.4340 C   0  0  0  0  0  0  0  0  0  0  0  0
   39.8770   35.2660   39.7940 C   0  0  0  0  0  0  0  0  0  0  0  0
   38.9000   34.3740   40.1620 C   0  0  0  0  0  0  0  0  0  0  0  0
   38.2350   33.4640   39.3850 C   0  0  0  0  0  0  0  0  0  0  0  0
   38.6250   33.4650   38.0400 C   0  0  0  0  0  0  0  0  0  0  0  0
   39.5900   34.3010   37.5300 C   0  0  0  0  0  0  0  0  0  0  0  0
   43.1877   35.9583   40.5584 H   0  0  0  0  0  0  0  0  0  0  0  0
   41.0280   35.0565   42.4889 H   0  0  0  0  0  0  0  0  0  0  0  0
   43.9698   36.5658   43.6156 H   0  0  0  0  0  0  0  0  0  0  0  0
   43.6711   32.8949   41.3330 H   0  0  0  0  0  0  0  0  0  0  0  0
   47.4482   33.8245   46.5158 H   0  0  0  0  0  0  0  0  0  0  0  0
   45.7222   33.7271   46.8118 H   0  0  0  0  0  0  0  0  0  0  0  0
   47.6328   31.8090   47.6045 H   0  0  0  0  0  0  0  0  0  0  0  0
   45.8947   31.4816   47.4974 H   0  0  0  0  0  0  0  0  0  0  0  0
   47.9163   30.2719   45.9196 H   0  0  0  0  0  0  0  0  0  0  0  0
   46.1998   30.2104   45.5455 H   0  0  0  0  0  0  0  0  0  0  0  0
   47.0059   31.4033   43.6222 H   0  0  0  0  0  0  0  0  0  0  0  0
   48.3278   32.1542   44.4544 H   0  0  0  0  0  0  0  0  0  0  0  0
   39.8166   36.7965   41.2082 H   0  0  0  0  0  0  0  0  0  0  0  0
   41.1682   36.8782   40.0053 H   0  0  0  0  0  0  0  0  0  0  0  0
   38.6132   34.3933   41.2238 H   0  0  0  0  0  0  0  0  0  0  0  0
   37.4615   32.7905   39.7826 H   0  0  0  0  0  0  0  0  0  0  0  0
   38.1329   32.7591   37.3548 H   0  0  0  0  0  0  0  0  0  0  0  0
   39.8748   34.2780   36.4678 H   0  0  0  0  0  0  0  0  0  0  0  0
  1  2  2  0
  1  4  1  0
  3  8  2  0
  4  3  1  0
  5  4  2  0
  5  6  1  0
  6  7  2  0
  7  8  1  0
  7  9  1  0
  9 10  1  0
 10 11  1  0
 12 11  1  0
 13  9  1  0
 13 12  1  0
 14  2  1  0
 15 16  1  0
 16 17  2  0
 17 18  1  0
 17 14  1  0
 19 18  2  0
 20 19  1  0
 21 20  2  0
 21 16  1  0
  1 22  1  0
  2 23  1  0
  3 24  1  0
  5 25  1  0
 10 26  1  0
 10 27  1  0
 11 28  1  0
 11 29  1  0
 12 30  1  0
 12 31  1  0
 13 32  1  0
 13 33  1  0
 14 34  1  0
 14 35  1  0
 18 36  1  0
 19 37  1  0
 20 38  1  0
 21 39  1  0
M  ISO  8  24  14  25  14  26  13  27  13  28  13  29  13  30  13  31  13
M  ISO  8  32  13  33  13  34   8  35   8  36  14  37  14  38  14  39  14
M  END
>  <minimizedAffinity>  (1) 
-6.51120281

>  <minimizedRMSD>  (1) 
0.995208383

$$$$
