
     RDKit          3D

 43 45  0  0  1  0  0  0  0  0999 V2000
   44.6120   34.9910   44.9740 C   0  0  0  0  0  0  0  0  0  0  0  0
   45.1460   34.3750   43.8110 C   0  0  0  0  0  0  0  0  0  0  0  0
   45.9990   33.2900   43.9820 C   0  0  0  0  0  0  0  0  0  0  0  0
   46.2620   32.8960   45.2650 N   0  0  0  0  0  0  0  0  0  0  0  0
   45.7470   33.4950   46.3320 C   0  0  0  0  0  0  0  0  0  0  0  0
   44.9240   34.5400   46.1930 N   0  0  0  0  0  0  0  0  0  0  0  0
   47.4000   32.3240   47.6670 C   0  0  2  0  0  0  0  0  0  0  0  0
   46.0730   33.0160   47.7120 C   0  0  2  0  0  0  0  0  0  0  0  0
   44.9760   31.9910   48.0290 C   0  0  0  0  0  0  0  0  0  0  0  0
   45.0730   30.9910   47.0850 O   0  0  0  0  0  0  0  0  0  0  0  0
   46.1730   30.1650   47.3250 C   0  0  0  0  0  0  0  0  0  0  0  0
   47.2940   30.8650   48.0530 C   0  0  2  0  0  0  0  0  0  0  0  0
   48.3030   32.9340   48.5320 O   0  0  0  0  0  0  0  0  0  0  0  0
   47.1780   30.7220   49.4480 O   0  0  0  0  0  0  0  0  0  0  0  0
   44.8150   34.8560   42.4780 C   0  0  0  0  0  0  0  0  0  0  0  0
   43.6210   34.9000   41.9540 C   0  0  0  0  0  0  0  0  0  0  0  0
   43.3500   35.4040   40.5770 C   0  0  0  0  0  0  0  0  0  0  0  0
   42.5080   35.7490   37.9410 F   0  0  0  0  0  0  0  0  0  0  0  0
   41.5990   35.2810   38.8270 C   0  0  0  0  0  0  0  0  0  0  0  0
   41.9890   35.0950   40.1640 C   0  0  0  0  0  0  0  0  0  0  0  0
   40.9820   34.6200   40.9540 C   0  0  0  0  0  0  0  0  0  0  0  0
   39.6840   34.3190   40.5850 C   0  0  0  0  0  0  0  0  0  0  0  0
   39.3920   34.5370   39.2310 C   0  0  0  0  0  0  0  0  0  0  0  0
   40.3180   35.0120   38.3370 C   0  0  0  0  0  0  0  0  0  0  0  0
   43.9330   35.8502   44.8703 H   0  0  0  0  0  0  0  0  0  0  0  0
   46.4439   32.7701   43.1207 H   0  0  0  0  0  0  0  0  0  0  0  0
   47.7522   32.3971   46.6275 H   0  0  0  0  0  0  0  0  0  0  0  0
   46.1194   33.8247   48.4562 H   0  0  0  0  0  0  0  0  0  0  0  0
   45.1271   31.5755   49.0362 H   0  0  0  0  0  0  0  0  0  0  0  0
   43.9814   32.4601   48.0028 H   0  0  0  0  0  0  0  0  0  0  0  0
   45.8421   29.3097   47.9323 H   0  0  0  0  0  0  0  0  0  0  0  0
   46.5650   29.8499   46.3467 H   0  0  0  0  0  0  0  0  0  0  0  0
   48.2265   30.3727   47.7397 H   0  0  0  0  0  0  0  0  0  0  0  0
   48.0363   32.7538   49.4682 H   0  0  0  0  0  0  0  0  0  0  0  0
   47.7338   31.4071   49.8973 H   0  0  0  0  0  0  0  0  0  0  0  0
   45.6476   35.2153   41.8553 H   0  0  0  0  0  0  0  0  0  0  0  0
   42.7719   34.5478   42.5581 H   0  0  0  0  0  0  0  0  0  0  0  0
   43.4919   36.4947   40.5593 H   0  0  0  0  0  0  0  0  0  0  0  0
   44.0461   34.9121   39.8817 H   0  0  0  0  0  0  0  0  0  0  0  0
   41.2338   34.4570   42.0123 H   0  0  0  0  0  0  0  0  0  0  0  0
   38.9383   33.9381   41.2983 H   0  0  0  0  0  0  0  0  0  0  0  0
   38.3764   34.3177   38.8699 H   0  0  0  0  0  0  0  0  0  0  0  0
   40.0630   35.1743   37.2793 H   0  0  0  0  0  0  0  0  0  0  0  0
  1  6  2  0
  2  3  2  0
  2  1  1  0
  3  4  1  0
  4  5  2  0
  6  5  1  0
  7  8  1  0
  7 12  1  0
  7 13  1  0
  8  5  1  0
  8  9  1  0
 10 11  1  0
 10  9  1  0
 11 12  1  0
 12 14  1  0
 15  2  1  0
 16 15  2  0
 17 16  1  0
 18 19  1  0
 19 20  2  0
 20 17  1  0
 20 21  1  0
 22 21  2  0
 23 22  1  0
 24 19  1  0
 24 23  2  0
  1 25  1  0
  3 26  1  0
  7 27  1  6
  8 28  1  1
  9 29  1  0
  9 30  1  0
 11 31  1  0
 11 32  1  0
 12 33  1  6
 13 34  1  0
 14 35  1  0
 15 36  1  0
 16 37  1  0
 17 38  1  0
 17 39  1  0
 21 40  1  0
 22 41  1  0
 23 42  1  0
 24 43  1  0
M  ISO  8  25  14  26  14  27  13  28  13  29  13  30  13  31  13  32  13
M  ISO  8  33  13  34   3  35   3  38   8  39   8  40  14  41  14  42  14
M  ISO  1  43  14
M  END
>  <minimizedAffinity>  (1) 
-6.42012405

>  <minimizedRMSD>  (1) 
2.20300412

$$$$
