
     RDKit          3D

 34 36  0  0  0  0  0  0  0  0999 V2000
   41.4000   35.7440   40.0920 C   0  0  0  0  0  0  0  0  0  0  0  0
   40.7480   35.4440   37.4020 F   0  0  0  0  0  0  0  0  0  0  0  0
   40.0020   34.7620   38.2980 C   0  0  0  0  0  0  0  0  0  0  0  0
   40.3090   34.8940   39.6620 C   0  0  0  0  0  0  0  0  0  0  0  0
   39.4790   34.1520   40.4730 C   0  0  0  0  0  0  0  0  0  0  0  0
   38.4340   33.3360   40.0910 C   0  0  0  0  0  0  0  0  0  0  0  0
   38.2180   33.2780   38.7120 C   0  0  0  0  0  0  0  0  0  0  0  0
   38.9700   33.9680   37.7920 C   0  0  0  0  0  0  0  0  0  0  0  0
   43.3570   35.4890   41.5600 C   0  0  0  0  0  0  0  0  0  0  0  0
   42.1250   35.1840   41.2600 C   0  0  0  0  0  0  0  0  0  0  0  0
   44.3650   35.7470   43.8550 C   0  0  0  0  0  0  0  0  0  0  0  0
   44.1050   34.9640   42.6960 C   0  0  0  0  0  0  0  0  0  0  0  0
   44.5880   33.6550   42.6680 C   0  0  0  0  0  0  0  0  0  0  0  0
   45.2810   33.2190   43.7660 N   0  0  0  0  0  0  0  0  0  0  0  0
   45.5050   33.9800   44.8320 C   0  0  0  0  0  0  0  0  0  0  0  0
   45.0490   35.2340   44.8710 N   0  0  0  0  0  0  0  0  0  0  0  0
   46.2830   33.3570   45.9590 C   0  0  0  0  0  0  0  0  0  0  0  0
   45.4010   32.8910   47.1590 C   0  0  0  0  0  0  0  0  0  0  0  0
   46.1040   31.9340   46.2710 C   0  0  0  0  0  0  0  0  0  0  0  0
   40.9939   36.7287   40.3668 H   0  0  0  0  0  0  0  0  0  0  0  0
   42.1140   35.8217   39.2589 H   0  0  0  0  0  0  0  0  0  0  0  0
   39.6723   34.2178   41.5539 H   0  0  0  0  0  0  0  0  0  0  0  0
   37.8211   32.7768   40.8132 H   0  0  0  0  0  0  0  0  0  0  0  0
   37.3992   32.6437   38.3416 H   0  0  0  0  0  0  0  0  0  0  0  0
   38.7697   33.8987   36.7126 H   0  0  0  0  0  0  0  0  0  0  0  0
   43.8748   36.2016   40.9012 H   0  0  0  0  0  0  0  0  0  0  0  0
   41.5935   34.4721   41.9086 H   0  0  0  0  0  0  0  0  0  0  0  0
   43.9976   36.7824   43.9098 H   0  0  0  0  0  0  0  0  0  0  0  0
   44.4192   33.0006   41.8001 H   0  0  0  0  0  0  0  0  0  0  0  0
   47.1693   33.9856   45.7879 H   0  0  0  0  0  0  0  0  0  0  0  0
   45.7425   33.0444   48.1933 H   0  0  0  0  0  0  0  0  0  0  0  0
   44.3634   33.0504   47.4877 H   0  0  0  0  0  0  0  0  0  0  0  0
   45.5176   31.3020   45.5878 H   0  0  0  0  0  0  0  0  0  0  0  0
   46.8065   31.1083   46.4573 H   0  0  0  0  0  0  0  0  0  0  0  0
  1 10  1  0
  2  3  1  0
  3  4  2  0
  4  1  1  0
  4  5  1  0
  6  5  2  0
  7  6  1  0
  8  3  1  0
  8  7  2  0
  9 12  1  0
 10  9  2  0
 11 16  2  0
 12 11  1  0
 13 12  2  0
 13 14  1  0
 14 15  2  0
 15 16  1  0
 15 17  1  0
 17 19  1  0
 17 18  1  0
 19 18  1  0
  1 20  1  0
  1 21  1  0
  5 22  1  0
  6 23  1  0
  7 24  1  0
  8 25  1  0
  9 26  1  0
 10 27  1  0
 11 28  1  0
 13 29  1  0
 17 30  1  0
 18 31  1  0
 18 32  1  0
 19 33  1  0
 19 34  1  0
M  ISO  8  20   8  21   8  22  14  23  14  24  14  25  14  28  14  29  14
M  ISO  5  30  13  31  13  32  13  33  13  34  13
M  END
>  <minimizedAffinity>  (1) 
-6.06961441

>  <minimizedRMSD>  (1) 
0.635728538

$$$$
