
     RDKit          3D

 29 30  0  0  0  0  0  0  0  0999 V2000
   41.6980   35.6520   39.8060 C   0  0  0  0  0  0  0  0  0  0  0  0
   40.7610   35.4970   37.1820 F   0  0  0  0  0  0  0  0  0  0  0  0
   40.0490   34.8540   38.1280 C   0  0  0  0  0  0  0  0  0  0  0  0
   40.4930   34.9120   39.4590 C   0  0  0  0  0  0  0  0  0  0  0  0
   39.6910   34.2240   40.3230 C   0  0  0  0  0  0  0  0  0  0  0  0
   38.5420   33.5100   40.0340 C   0  0  0  0  0  0  0  0  0  0  0  0
   38.1810   33.5110   38.6750 C   0  0  0  0  0  0  0  0  0  0  0  0
   38.9140   34.1730   37.7090 C   0  0  0  0  0  0  0  0  0  0  0  0
   43.5030   35.4410   41.4660 C   0  0  0  0  0  0  0  0  0  0  0  0
   42.2760   35.1680   41.0960 C   0  0  0  0  0  0  0  0  0  0  0  0
   44.2480   35.8540   43.8350 C   0  0  0  0  0  0  0  0  0  0  0  0
   44.1320   35.0070   42.7010 C   0  0  0  0  0  0  0  0  0  0  0  0
   44.6440   33.7290   42.8100 C   0  0  0  0  0  0  0  0  0  0  0  0
   45.2240   33.3760   43.9960 N   0  0  0  0  0  0  0  0  0  0  0  0
   45.3190   34.1950   45.0470 C   0  0  0  0  0  0  0  0  0  0  0  0
   44.8270   35.4390   44.9570 N   0  0  0  0  0  0  0  0  0  0  0  0
   45.9350   33.7700   46.2570 N   0  0  0  0  0  0  0  0  0  0  0  0
   41.4487   36.7190   39.9024 H   0  0  0  0  0  0  0  0  0  0  0  0
   42.4425   35.4982   39.0110 H   0  0  0  0  0  0  0  0  0  0  0  0
   39.9961   34.2392   41.3797 H   0  0  0  0  0  0  0  0  0  0  0  0
   37.9585   32.9845   40.8043 H   0  0  0  0  0  0  0  0  0  0  0  0
   37.2782   32.9623   38.3685 H   0  0  0  0  0  0  0  0  0  0  0  0
   38.6109   34.1610   36.6517 H   0  0  0  0  0  0  0  0  0  0  0  0
   44.1095   36.0522   40.7815 H   0  0  0  0  0  0  0  0  0  0  0  0
   41.6467   34.5585   41.7613 H   0  0  0  0  0  0  0  0  0  0  0  0
   43.8492   36.8779   43.7835 H   0  0  0  0  0  0  0  0  0  0  0  0
   44.5869   33.0197   41.9712 H   0  0  0  0  0  0  0  0  0  0  0  0
   45.9989   34.4158   47.0568 H   0  0  0  0  0  0  0  0  0  0  0  0
   46.3170   32.8165   46.3332 H   0  0  0  0  0  0  0  0  0  0  0  0
  1 10  1  0
  2  3  1  0
  3  4  2  0
  4  1  1  0
  4  5  1  0
  6  5  2  0
  7  6  1  0
  8  3  1  0
  8  7  2  0
  9 12  1  0
 10  9  2  0
 11 16  2  0
 12 13  2  0
 12 11  1  0
 13 14  1  0
 14 15  2  0
 15 17  1  0
 16 15  1  0
  1 18  1  0
  1 19  1  0
  5 20  1  0
  6 21  1  0
  7 22  1  0
  8 23  1  0
  9 24  1  0
 10 25  1  0
 11 26  1  0
 13 27  1  0
 17 28  1  0
 17 29  1  0
M  ISO  8  18   8  19   8  20  14  21  14  22  14  23  14  26  14  27  14
M  END
>  <minimizedAffinity>  (1) 
-5.98613262

>  <minimizedRMSD>  (1) 
0.169676408

$$$$
