
     RDKit          3D

 28 29  0  0  0  0  0  0  0  0999 V2000
   41.7520   35.6110   39.7860 C   0  0  0  0  0  0  0  0  0  0  0  0
   40.7720   35.4920   37.1830 F   0  0  0  0  0  0  0  0  0  0  0  0
   40.0650   34.8470   38.1390 C   0  0  0  0  0  0  0  0  0  0  0  0
   40.5270   34.8850   39.4660 C   0  0  0  0  0  0  0  0  0  0  0  0
   39.7340   34.2020   40.3370 C   0  0  0  0  0  0  0  0  0  0  0  0
   38.5730   33.5080   40.0560 C   0  0  0  0  0  0  0  0  0  0  0  0
   38.1960   33.5310   38.7030 C   0  0  0  0  0  0  0  0  0  0  0  0
   38.9160   34.1860   37.7330 C   0  0  0  0  0  0  0  0  0  0  0  0
   43.5410   35.4100   41.4640 C   0  0  0  0  0  0  0  0  0  0  0  0
   42.3100   35.1600   41.0990 C   0  0  0  0  0  0  0  0  0  0  0  0
   44.2310   35.8760   43.8330 C   0  0  0  0  0  0  0  0  0  0  0  0
   44.1530   35.0070   42.7180 C   0  0  0  0  0  0  0  0  0  0  0  0
   44.6900   33.7300   42.8570 C   0  0  0  0  0  0  0  0  0  0  0  0
   45.2520   33.4180   44.0690 N   0  0  0  0  0  0  0  0  0  0  0  0
   45.3080   34.2610   45.0970 C   0  0  0  0  0  0  0  0  0  0  0  0
   44.7930   35.4940   44.9730 N   0  0  0  0  0  0  0  0  0  0  0  0
   45.8980   33.8470   46.2830 O   0  0  0  0  0  0  0  0  0  0  0  0
   41.5299   36.6870   39.8391 H   0  0  0  0  0  0  0  0  0  0  0  0
   42.4953   35.4115   39.0001 H   0  0  0  0  0  0  0  0  0  0  0  0
   40.0559   34.2029   41.3889 H   0  0  0  0  0  0  0  0  0  0  0  0
   37.9922   32.9813   40.8275 H   0  0  0  0  0  0  0  0  0  0  0  0
   37.2803   32.9990   38.4056 H   0  0  0  0  0  0  0  0  0  0  0  0
   38.5949   34.1859   36.6809 H   0  0  0  0  0  0  0  0  0  0  0  0
   44.1681   35.9754   40.7589 H   0  0  0  0  0  0  0  0  0  0  0  0
   41.6597   34.5962   41.7840 H   0  0  0  0  0  0  0  0  0  0  0  0
   43.8161   36.8916   43.7525 H   0  0  0  0  0  0  0  0  0  0  0  0
   44.6648   33.0034   42.0315 H   0  0  0  0  0  0  0  0  0  0  0  0
   45.9454   34.4655   47.0546 H   0  0  0  0  0  0  0  0  0  0  0  0
  1 10  1  0
  2  3  1  0
  3  4  2  0
  4  1  1  0
  4  5  1  0
  6  5  2  0
  7  6  1  0
  8  3  1  0
  8  7  2  0
  9 12  1  0
 10  9  2  0
 11 16  2  0
 12 13  2  0
 12 11  1  0
 13 14  1  0
 14 15  2  0
 15 17  1  0
 16 15  1  0
  1 18  1  0
  1 19  1  0
  5 20  1  0
  6 21  1  0
  7 22  1  0
  8 23  1  0
  9 24  1  0
 10 25  1  0
 11 26  1  0
 13 27  1  0
 17 28  1  0
M  ISO  8  18   8  19   8  20  14  21  14  22  14  23  14  26  14  27  14
M  ISO  1  28   3
M  END
>  <minimizedAffinity>  (1) 
-5.97614241

>  <minimizedRMSD>  (1) 
0.218511224

$$$$
