
     RDKit          3D

 41 43  0  0  0  0  0  0  0  0999 V2000
   44.4920   35.4460   43.4540 C   0  0  0  0  0  0  0  0  0  0  0  0
   43.8210   34.7540   42.4080 C   0  0  0  0  0  0  0  0  0  0  0  0
   44.1100   33.4250   42.2310 C   0  0  0  0  0  0  0  0  0  0  0  0
   45.0190   32.8630   43.0700 N   0  0  0  0  0  0  0  0  0  0  0  0
   45.6460   33.5060   44.0480 C   0  0  0  0  0  0  0  0  0  0  0  0
   45.3630   34.8160   44.2230 N   0  0  0  0  0  0  0  0  0  0  0  0
   46.6240   32.9030   44.9520 C   0  0  0  0  0  0  0  0  0  0  0  0
   46.3390   33.2900   46.3780 C   0  0  0  0  0  0  0  0  0  0  0  0
   45.8930   32.0880   47.1140 C   0  0  0  0  0  0  0  0  0  0  0  0
   45.7220   32.3610   48.4590 C   0  0  0  0  0  0  0  0  0  0  0  0
   45.3060   31.3950   49.3670 C   0  0  0  0  0  0  0  0  0  0  0  0
   45.0620   30.1440   48.9150 N   0  0  0  0  0  0  0  0  0  0  0  0
   45.2350   29.8940   47.6000 C   0  0  0  0  0  0  0  0  0  0  0  0
   45.6380   30.8400   46.7350 N   0  0  0  0  0  0  0  0  0  0  0  0
   42.8550   35.4570   41.5570 C   0  0  0  0  0  0  0  0  0  0  0  0
   41.5590   35.4710   41.7420 C   0  0  0  0  0  0  0  0  0  0  0  0
   40.6240   36.2050   40.8420 C   0  0  0  0  0  0  0  0  0  0  0  0
   41.2660   36.1470   38.1180 F   0  0  0  0  0  0  0  0  0  0  0  0
   40.3050   35.3010   38.5640 C   0  0  0  0  0  0  0  0  0  0  0  0
   39.9620   35.3040   39.9030 C   0  0  0  0  0  0  0  0  0  0  0  0
   38.9700   34.3970   40.2250 C   0  0  0  0  0  0  0  0  0  0  0  0
   38.3190   33.5290   39.3750 C   0  0  0  0  0  0  0  0  0  0  0  0
   38.7340   33.6020   38.0450 C   0  0  0  0  0  0  0  0  0  0  0  0
   39.7110   34.4640   37.6080 C   0  0  0  0  0  0  0  0  0  0  0  0
   44.2846   36.5128   43.6241 H   0  0  0  0  0  0  0  0  0  0  0  0
   43.6239   32.8360   41.4393 H   0  0  0  0  0  0  0  0  0  0  0  0
   46.5754   31.8081   44.8583 H   0  0  0  0  0  0  0  0  0  0  0  0
   47.6267   33.2649   44.6808 H   0  0  0  0  0  0  0  0  0  0  0  0
   47.2519   33.6911   46.8424 H   0  0  0  0  0  0  0  0  0  0  0  0
   45.5549   34.0609   46.4081 H   0  0  0  0  0  0  0  0  0  0  0  0
   45.9225   33.3795   48.8230 H   0  0  0  0  0  0  0  0  0  0  0  0
   45.1778   31.6426   50.4311 H   0  0  0  0  0  0  0  0  0  0  0  0
   45.0391   28.8794   47.2229 H   0  0  0  0  0  0  0  0  0  0  0  0
   43.2504   36.0161   40.6961 H   0  0  0  0  0  0  0  0  0  0  0  0
   41.1426   34.9182   42.5970 H   0  0  0  0  0  0  0  0  0  0  0  0
   39.8600   36.7068   41.4539 H   0  0  0  0  0  0  0  0  0  0  0  0
   41.2072   36.9364   40.2633 H   0  0  0  0  0  0  0  0  0  0  0  0
   38.6649   34.3641   41.2813 H   0  0  0  0  0  0  0  0  0  0  0  0
   37.5365   32.8357   39.7171 H   0  0  0  0  0  0  0  0  0  0  0  0
   38.2559   32.9373   37.3104 H   0  0  0  0  0  0  0  0  0  0  0  0
   40.0149   34.4963   36.5513 H   0  0  0  0  0  0  0  0  0  0  0  0
  1  6  2  0
  2  1  1  0
  3  2  2  0
  3  4  1  0
  4  5  2  0
  5  6  1  0
  5  7  1  0
  7  8  1  0
  8  9  1  0
  9 10  2  0
 10 11  1  0
 12 11  2  0
 13 12  1  0
 14  9  1  0
 14 13  2  0
 15 16  2  0
 15  2  1  0
 17 16  1  0
 18 19  1  0
 19 20  2  0
 20 21  1  0
 20 17  1  0
 22 21  2  0
 23 22  1  0
 24 23  2  0
 24 19  1  0
  1 25  1  0
  3 26  1  0
  7 27  1  0
  7 28  1  0
  8 29  1  0
  8 30  1  0
 10 31  1  0
 11 32  1  0
 13 33  1  0
 15 34  1  0
 16 35  1  0
 17 36  1  0
 17 37  1  0
 21 38  1  0
 22 39  1  0
 23 40  1  0
 24 41  1  0
M  ISO  8  25  14  26  14  27   8  28   8  29   8  30   8  31  14  32  14
M  ISO  7  33  14  36   8  37   8  38  14  39  14  40  14  41  14
M  END
>  <minimizedAffinity>  (1) 
-6.91054106

>  <minimizedRMSD>  (1) 
1.20536971

$$$$
