
     RDKit          3D

 45 47  0  0  0  0  0  0  0  0999 V2000
   44.3520   35.6500   43.3630 C   0  0  0  0  0  0  0  0  0  0  0  0
   43.7880   34.8720   42.3270 C   0  0  0  0  0  0  0  0  0  0  0  0
   44.1230   33.5250   42.2690 C   0  0  0  0  0  0  0  0  0  0  0  0
   44.9720   33.0690   43.2230 N   0  0  0  0  0  0  0  0  0  0  0  0
   45.4980   33.8270   44.2020 C   0  0  0  0  0  0  0  0  0  0  0  0
   45.1720   35.1320   44.2550 N   0  0  0  0  0  0  0  0  0  0  0  0
   46.4110   33.2630   45.2130 C   0  0  0  0  0  0  0  0  0  0  0  0
   45.6930   33.1680   46.5440 C   0  0  0  0  0  0  0  0  0  0  0  0
   46.2470   32.2030   47.4470 N   0  0  0  0  0  0  0  0  0  0  0  0
   45.9000   32.4050   48.8210 C   0  0  0  0  0  0  0  0  0  0  0  0
   45.2570   31.1680   49.3620 C   0  0  0  0  0  0  0  0  0  0  0  0
   45.0200   30.2800   48.1660 C   0  0  0  0  0  0  0  0  0  0  0  0
   45.9270   30.8380   47.1020 C   0  0  0  0  0  0  0  0  0  0  0  0
   42.8700   35.4660   41.3390 C   0  0  0  0  0  0  0  0  0  0  0  0
   41.5590   35.4710   41.4600 C   0  0  0  0  0  0  0  0  0  0  0  0
   40.6450   36.0800   40.4550 C   0  0  0  0  0  0  0  0  0  0  0  0
   40.7890   35.7830   37.6700 F   0  0  0  0  0  0  0  0  0  0  0  0
   39.9560   34.9540   38.3550 C   0  0  0  0  0  0  0  0  0  0  0  0
   39.8690   35.0880   39.7440 C   0  0  0  0  0  0  0  0  0  0  0  0
   38.9910   34.1950   40.3120 C   0  0  0  0  0  0  0  0  0  0  0  0
   38.2300   33.2350   39.6740 C   0  0  0  0  0  0  0  0  0  0  0  0
   38.3920   33.1870   38.2940 C   0  0  0  0  0  0  0  0  0  0  0  0
   39.2380   34.0250   37.6200 C   0  0  0  0  0  0  0  0  0  0  0  0
   44.0993   36.7187   43.4267 H   0  0  0  0  0  0  0  0  0  0  0  0
   43.7201   32.8622   41.4890 H   0  0  0  0  0  0  0  0  0  0  0  0
   46.7329   32.2596   44.8975 H   0  0  0  0  0  0  0  0  0  0  0  0
   47.2913   33.9144   45.3166 H   0  0  0  0  0  0  0  0  0  0  0  0
   45.7331   34.1550   47.0279 H   0  0  0  0  0  0  0  0  0  0  0  0
   44.6663   32.8399   46.3245 H   0  0  0  0  0  0  0  0  0  0  0  0
   46.8087   32.6283   49.3993 H   0  0  0  0  0  0  0  0  0  0  0  0
   45.1971   33.2474   48.9007 H   0  0  0  0  0  0  0  0  0  0  0  0
   45.9237   30.6721   50.0828 H   0  0  0  0  0  0  0  0  0  0  0  0
   44.3210   31.3942   49.8938 H   0  0  0  0  0  0  0  0  0  0  0  0
   45.2849   29.2375   48.3962 H   0  0  0  0  0  0  0  0  0  0  0  0
   43.9651   30.2677   47.8545 H   0  0  0  0  0  0  0  0  0  0  0  0
   45.4175   30.8106   46.1275 H   0  0  0  0  0  0  0  0  0  0  0  0
   46.8471   30.2386   47.0368 H   0  0  0  0  0  0  0  0  0  0  0  0
   43.3073   35.9343   40.4449 H   0  0  0  0  0  0  0  0  0  0  0  0
   41.1159   35.0006   42.3502 H   0  0  0  0  0  0  0  0  0  0  0  0
   39.9558   36.7635   40.9725 H   0  0  0  0  0  0  0  0  0  0  0  0
   41.2636   36.6135   39.7184 H   0  0  0  0  0  0  0  0  0  0  0  0
   38.8817   34.2520   41.4051 H   0  0  0  0  0  0  0  0  0  0  0  0
   37.5493   32.5614   40.2152 H   0  0  0  0  0  0  0  0  0  0  0  0
   37.8167   32.4452   37.7207 H   0  0  0  0  0  0  0  0  0  0  0  0
   39.3448   33.9628   36.5270 H   0  0  0  0  0  0  0  0  0  0  0  0
  1  6  2  0
  2  1  1  0
  3  2  2  0
  3  4  1  0
  4  5  2  0
  5  6  1  0
  5  7  1  0
  7  8  1  0
  8  9  1  0
  9 10  1  0
 10 11  1  0
 12 11  1  0
 13  9  1  0
 13 12  1  0
 14 15  2  0
 14  2  1  0
 16 15  1  0
 17 18  1  0
 18 19  2  0
 19 20  1  0
 19 16  1  0
 21 20  2  0
 22 21  1  0
 23 22  2  0
 23 18  1  0
  1 24  1  0
  3 25  1  0
  7 26  1  0
  7 27  1  0
  8 28  1  0
  8 29  1  0
 10 30  1  0
 10 31  1  0
 11 32  1  0
 11 33  1  0
 12 34  1  0
 12 35  1  0
 13 36  1  0
 13 37  1  0
 14 38  1  0
 15 39  1  0
 16 40  1  0
 16 41  1  0
 20 42  1  0
 21 43  1  0
 22 44  1  0
 23 45  1  0
M  ISO  8  24  14  25  14  26   8  27   8  28   8  29   8  30  13  31  13
M  ISO  8  32  13  33  13  34  13  35  13  36  13  37  13  40   8  41   8
M  ISO  4  42  14  43  14  44  14  45  14
M  END
>  <minimizedAffinity>  (1) 
-6.82762098

>  <minimizedRMSD>  (1) 
0.846221209

$$$$
