
     RDKit          3D

 44 46  0  0  0  0  0  0  0  0999 V2000
   44.8860   35.3610   43.1100 C   0  0  0  0  0  0  0  0  0  0  0  0
   43.9640   34.6820   42.2690 C   0  0  0  0  0  0  0  0  0  0  0  0
   44.0570   33.3010   42.1820 C   0  0  0  0  0  0  0  0  0  0  0  0
   45.0190   32.6980   42.9040 N   0  0  0  0  0  0  0  0  0  0  0  0
   45.8800   33.3380   43.6900 C   0  0  0  0  0  0  0  0  0  0  0  0
   45.8080   34.6720   43.7880 N   0  0  0  0  0  0  0  0  0  0  0  0
   46.9350   32.7240   44.4920 C   0  0  0  0  0  0  0  0  0  0  0  0
   46.8450   33.0870   45.9290 C   0  0  0  0  0  0  0  0  0  0  0  0
   46.6950   30.8020   47.1250 C   0  0  0  0  0  0  0  0  0  0  0  0
   46.3340   32.1000   46.8610 C   0  0  0  0  0  0  0  0  0  0  0  0
   45.2980   32.5470   47.6970 C   0  0  0  0  0  0  0  0  0  0  0  0
   44.7250   31.7600   48.6620 C   0  0  0  0  0  0  0  0  0  0  0  0
   45.1370   30.4680   48.8730 C   0  0  0  0  0  0  0  0  0  0  0  0
   46.1470   30.0000   48.0730 C   0  0  0  0  0  0  0  0  0  0  0  0
   48.5260   29.8180   45.5850 N   0  0  0  0  0  0  0  0  0  0  0  0
   47.7170   30.2650   46.2740 C   0  0  0  0  0  0  0  0  0  0  0  0
   42.9460   35.4360   41.5240 C   0  0  0  0  0  0  0  0  0  0  0  0
   41.6470   35.3190   41.7090 C   0  0  0  0  0  0  0  0  0  0  0  0
   40.6360   36.0980   40.9380 C   0  0  0  0  0  0  0  0  0  0  0  0
   41.3150   36.1420   38.2200 F   0  0  0  0  0  0  0  0  0  0  0  0
   40.3250   35.3170   38.6070 C   0  0  0  0  0  0  0  0  0  0  0  0
   39.9540   35.2610   39.9540 C   0  0  0  0  0  0  0  0  0  0  0  0
   38.9360   34.3820   40.2220 C   0  0  0  0  0  0  0  0  0  0  0  0
   38.2670   33.5770   39.3120 C   0  0  0  0  0  0  0  0  0  0  0  0
   38.7050   33.7000   37.9810 C   0  0  0  0  0  0  0  0  0  0  0  0
   39.7150   34.5490   37.6110 C   0  0  0  0  0  0  0  0  0  0  0  0
   44.8406   36.4561   43.2030 H   0  0  0  0  0  0  0  0  0  0  0  0
   43.3708   32.7211   41.5473 H   0  0  0  0  0  0  0  0  0  0  0  0
   46.8568   31.6307   44.3993 H   0  0  0  0  0  0  0  0  0  0  0  0
   47.8991   33.0955   44.1145 H   0  0  0  0  0  0  0  0  0  0  0  0
   47.8595   33.3527   46.2611 H   0  0  0  0  0  0  0  0  0  0  0  0
   46.0993   33.8952   45.9566 H   0  0  0  0  0  0  0  0  0  0  0  0
   44.9294   33.5758   47.5717 H   0  0  0  0  0  0  0  0  0  0  0  0
   43.9159   32.1737   49.2819 H   0  0  0  0  0  0  0  0  0  0  0  0
   44.6779   29.8371   49.6483 H   0  0  0  0  0  0  0  0  0  0  0  0
   46.5146   28.9710   48.1998 H   0  0  0  0  0  0  0  0  0  0  0  0
   43.2925   36.1469   40.7594 H   0  0  0  0  0  0  0  0  0  0  0  0
   41.2900   34.6106   42.4710 H   0  0  0  0  0  0  0  0  0  0  0  0
   39.8915   36.5078   41.6364 H   0  0  0  0  0  0  0  0  0  0  0  0
   41.1565   36.9061   40.4032 H   0  0  0  0  0  0  0  0  0  0  0  0
   38.6156   34.3074   41.2716 H   0  0  0  0  0  0  0  0  0  0  0  0
   37.4564   32.8950   39.6083 H   0  0  0  0  0  0  0  0  0  0  0  0
   38.2173   33.0903   37.2062 H   0  0  0  0  0  0  0  0  0  0  0  0
   40.0361   34.6239   36.5616 H   0  0  0  0  0  0  0  0  0  0  0  0
  1  6  2  0
  2  1  1  0
  3  2  2  0
  3  4  1  0
  4  5  2  0
  5  6  1  0
  5  7  1  0
  7  8  1  0
  8 10  1  0
  9 14  2  0
 10  9  1  0
 10 11  2  0
 11 12  1  0
 12 13  2  0
 14 13  1  0
 15 16  3  0
 16  9  1  0
 17 18  2  0
 17  2  1  0
 19 18  1  0
 20 21  1  0
 21 22  2  0
 22 23  1  0
 22 19  1  0
 24 23  2  0
 25 24  1  0
 26 25  2  0
 26 21  1  0
  1 27  1  0
  3 28  1  0
  7 29  1  0
  7 30  1  0
  8 31  1  0
  8 32  1  0
 11 33  1  0
 12 34  1  0
 13 35  1  0
 14 36  1  0
 17 37  1  0
 18 38  1  0
 19 39  1  0
 19 40  1  0
 23 41  1  0
 24 42  1  0
 25 43  1  0
 26 44  1  0
M  ISO  8  27  14  28  14  29   8  30   8  31   8  32   8  33  14  34  14
M  ISO  8  35  14  36  14  39   8  40   8  41  14  42  14  43  14  44  14
M  END
>  <minimizedAffinity>  (1) 
-6.73219347

>  <minimizedRMSD>  (1) 
1.13222837

$$$$
