
     RDKit          3D

 41 42  0  0  0  0  0  0  0  0999 V2000
   44.6880   35.7120   42.9430 C   0  0  0  0  0  0  0  0  0  0  0  0
   43.8020   34.9150   42.1790 C   0  0  0  0  0  0  0  0  0  0  0  0
   43.9490   33.5470   42.2290 C   0  0  0  0  0  0  0  0  0  0  0  0
   44.9410   33.0490   43.0140 N   0  0  0  0  0  0  0  0  0  0  0  0
   45.7730   33.8010   43.7310 C   0  0  0  0  0  0  0  0  0  0  0  0
   45.6330   35.1260   43.6830 N   0  0  0  0  0  0  0  0  0  0  0  0
   46.8500   33.3010   44.5840 C   0  0  0  0  0  0  0  0  0  0  0  0
   46.3960   33.2450   46.0390 C   0  0  0  0  0  0  0  0  0  0  0  0
   45.3930   32.2280   46.2400 N   0  0  0  0  0  0  0  0  0  0  0  0
   45.7970   31.4040   47.7280 S   0  0  0  0  0  0  0  0  0  0  0  0
   44.8090   30.2880   47.9140 O   0  0  0  0  0  0  0  0  0  0  0  0
   45.6990   32.3560   48.8840 O   0  0  0  0  0  0  0  0  0  0  0  0
   47.3200   30.7480   47.6960 O   0  0  0  0  0  0  0  0  0  0  0  0
   42.7570   35.5530   41.3590 C   0  0  0  0  0  0  0  0  0  0  0  0
   41.4840   35.5380   41.6370 C   0  0  0  0  0  0  0  0  0  0  0  0
   40.4610   36.1950   40.7810 C   0  0  0  0  0  0  0  0  0  0  0  0
   41.1070   36.1230   38.0650 F   0  0  0  0  0  0  0  0  0  0  0  0
   40.1870   35.2400   38.5070 C   0  0  0  0  0  0  0  0  0  0  0  0
   39.8360   35.2450   39.8620 C   0  0  0  0  0  0  0  0  0  0  0  0
   38.8910   34.3060   40.2020 C   0  0  0  0  0  0  0  0  0  0  0  0
   38.2810   33.3940   39.3540 C   0  0  0  0  0  0  0  0  0  0  0  0
   38.6950   33.4670   38.0260 C   0  0  0  0  0  0  0  0  0  0  0  0
   39.6300   34.3630   37.5790 C   0  0  0  0  0  0  0  0  0  0  0  0
   44.5987   36.8083   42.9273 H   0  0  0  0  0  0  0  0  0  0  0  0
   43.2879   32.8812   41.6548 H   0  0  0  0  0  0  0  0  0  0  0  0
   47.1338   32.2907   44.2541 H   0  0  0  0  0  0  0  0  0  0  0  0
   47.7110   33.9811   44.5057 H   0  0  0  0  0  0  0  0  0  0  0  0
   47.2644   33.0218   46.6763 H   0  0  0  0  0  0  0  0  0  0  0  0
   45.9580   34.2191   46.3021 H   0  0  0  0  0  0  0  0  0  0  0  0
   44.4610   32.6598   46.3159 H   0  0  0  0  0  0  0  0  0  0  0  0
   44.6686   30.1294   48.8811 H   0  0  0  0  0  0  0  0  0  0  0  0
   45.7511   31.8501   49.7334 H   0  0  0  0  0  0  0  0  0  0  0  0
   47.6396   30.6104   48.6228 H   0  0  0  0  0  0  0  0  0  0  0  0
   43.0743   36.0796   40.4469 H   0  0  0  0  0  0  0  0  0  0  0  0
   41.1511   35.0157   42.5461 H   0  0  0  0  0  0  0  0  0  0  0  0
   39.6839   36.6320   41.4254 H   0  0  0  0  0  0  0  0  0  0  0  0
   40.9603   36.9725   40.1842 H   0  0  0  0  0  0  0  0  0  0  0  0
   38.5866   34.2749   41.2586 H   0  0  0  0  0  0  0  0  0  0  0  0
   37.5296   32.6701   39.7025 H   0  0  0  0  0  0  0  0  0  0  0  0
   38.2492   32.7708   37.3003 H   0  0  0  0  0  0  0  0  0  0  0  0
   39.9312   34.3891   36.5214 H   0  0  0  0  0  0  0  0  0  0  0  0
  1  6  2  0
  2  3  2  0
  2  1  1  0
  3  4  1  0
  4  5  2  0
  5  7  1  0
  6  5  1  0
  7  8  1  0
  8  9  1  0
  9 10  1  0
 10 11  1  0
 10 12  1  0
 13 10  1  0
 14 15  2  0
 14  2  1  0
 16 15  1  0
 17 18  1  0
 18 19  2  0
 19 20  1  0
 19 16  1  0
 21 20  2  0
 22 21  1  0
 23 22  2  0
 23 18  1  0
  1 24  1  0
  3 25  1  0
  7 26  1  0
  7 27  1  0
  8 28  1  0
  8 29  1  0
  9 30  1  0
 11 31  1  0
 12 32  1  0
 13 33  1  0
 14 34  1  0
 15 35  1  0
 16 36  1  0
 16 37  1  0
 20 38  1  0
 21 39  1  0
 22 40  1  0
 23 41  1  0
M  ISO  8  24  14  25  14  26   8  27   8  28   8  29   8  30   5  31   3
M  ISO  8  32   3  33   3  36   8  37   8  38  14  39  14  40  14  41  14
M  END
>  <minimizedAffinity>  (1) 
-6.32097912

>  <minimizedRMSD>  (1) 
0.621071637

$$$$
