
     RDKit          3D

 13 13  0  0  0  0  0  0  0  0999 V2000
   47.6740   34.9590   42.3480 C   0  0  0  0  0  0  0  0  0  0  0  0
   47.9310   33.9050   43.2480 C   0  0  0  0  0  0  0  0  0  0  0  0
   46.9010   33.5280   44.1280 C   0  0  0  0  0  0  0  0  0  0  0  0
   45.7260   34.2050   44.0550 N   0  0  0  0  0  0  0  0  0  0  0  0
   45.5090   35.2110   43.1830 C   0  0  0  0  0  0  0  0  0  0  0  0
   46.4810   35.5830   42.3350 N   0  0  0  0  0  0  0  0  0  0  0  0
   48.7940   35.3320   41.4260 C   0  0  0  0  0  0  0  0  0  0  0  0
   48.4170   35.2450   40.1070 F   0  0  0  0  0  0  0  0  0  0  0  0
   49.2090   36.6160   41.7540 F   0  0  0  0  0  0  0  0  0  0  0  0
   49.8900   34.5010   41.6740 F   0  0  0  0  0  0  0  0  0  0  0  0
   48.9051   33.3942   43.2615 H   0  0  0  0  0  0  0  0  0  0  0  0
   47.0424   32.7117   44.8516 H   0  0  0  0  0  0  0  0  0  0  0  0
   44.5370   35.7258   43.1668 H   0  0  0  0  0  0  0  0  0  0  0  0
  1  2  2  0
  2  3  1  0
  4  3  2  0
  5  4  1  0
  6  1  1  0
  6  5  2  0
  7 10  1  0
  7  9  1  0
  7  1  1  0
  8  7  1  0
  2 11  1  0
  3 12  1  0
  5 13  1  0
M  ISO  3  11  14  12  14  13  14
M  END
>  <minimizedAffinity>  (1) 
-3.81436443

>  <minimizedRMSD>  (1) 
4.74570894

$$$$
