
     RDKit          3D

 28 29  0  0  1  0  0  0  0  0999 V2000
   44.5530   35.6760   44.8850 C   0  0  0  0  0  0  0  0  0  0  0  0
   45.1480   35.5590   43.6290 C   0  0  0  0  0  0  0  0  0  0  0  0
   46.0540   34.5150   43.4050 C   0  0  0  0  0  0  0  0  0  0  0  0
   46.3150   33.6510   44.4340 N   0  0  0  0  0  0  0  0  0  0  0  0
   45.7180   33.7920   45.6410 C   0  0  0  0  0  0  0  0  0  0  0  0
   44.8470   34.8010   45.8520 N   0  0  0  0  0  0  0  0  0  0  0  0
   46.0150   32.8670   46.6990 N   0  0  0  0  0  0  0  0  0  0  0  0
   45.0580   32.7950   47.7930 C   0  0  0  0  0  0  0  0  0  0  0  0
   45.5480   32.0610   48.9770 C   0  0  0  0  0  0  0  0  0  0  0  0
   46.4050   30.9080   48.5650 C   0  0  0  0  0  0  0  0  0  0  0  0
   47.6440   31.5190   47.9110 C   0  0  0  0  0  0  0  0  0  0  0  0
   47.2330   32.0850   46.5930 C   0  0  1  0  0  0  0  0  0  0  0  0
   47.1490   31.0700   45.4940 C   0  0  0  0  0  0  0  0  0  0  0  0
   43.8399   36.4904   45.0804 H   0  0  0  0  0  0  0  0  0  0  0  0
   44.9097   36.2745   42.8282 H   0  0  0  0  0  0  0  0  0  0  0  0
   46.5432   34.3925   42.4274 H   0  0  0  0  0  0  0  0  0  0  0  0
   44.8087   33.8210   48.1017 H   0  0  0  0  0  0  0  0  0  0  0  0
   44.1863   32.2406   47.4152 H   0  0  0  0  0  0  0  0  0  0  0  0
   46.1384   32.7433   49.6063 H   0  0  0  0  0  0  0  0  0  0  0  0
   44.6835   31.6769   49.5384 H   0  0  0  0  0  0  0  0  0  0  0  0
   46.6912   30.3110   49.4434 H   0  0  0  0  0  0  0  0  0  0  0  0
   45.8736   30.2366   47.8745 H   0  0  0  0  0  0  0  0  0  0  0  0
   48.0496   32.3168   48.5506 H   0  0  0  0  0  0  0  0  0  0  0  0
   48.4226   30.7540   47.7743 H   0  0  0  0  0  0  0  0  0  0  0  0
   48.0467   32.7649   46.3004 H   0  0  0  0  0  0  0  0  0  0  0  0
   47.0657   30.0635   45.9300 H   0  0  0  0  0  0  0  0  0  0  0  0
   46.2647   31.2747   44.8726 H   0  0  0  0  0  0  0  0  0  0  0  0
   48.0549   31.1266   44.8726 H   0  0  0  0  0  0  0  0  0  0  0  0
  1  6  2  0
  2  1  1  0
  3  2  2  0
  3  4  1  0
  4  5  2  0
  5  6  1  0
  5  7  1  0
  7  8  1  0
  8  9  1  0
 10  9  1  0
 11 10  1  0
 12  7  1  0
 12 11  1  0
 13 12  1  0
  1 14  1  0
  2 15  1  0
  3 16  1  0
  8 17  1  0
  8 18  1  0
  9 19  1  0
  9 20  1  0
 10 21  1  0
 10 22  1  0
 11 23  1  0
 11 24  1  0
 12 25  1  6
 13 26  1  0
 13 27  1  0
 13 28  1  0
M  ISO  8  14  14  15  14  16  14  17  13  18  13  19  13  20  13  21  13
M  ISO  7  22  13  23  13  24  13  25  13  26   8  27   8  28   8
M  END
>  <minimizedAffinity>  (1) 
-4.7772789

>  <minimizedRMSD>  (1) 
0.0574229695

$$$$
