
     RDKit          3D

 26 27  0  0  1  0  0  0  0  0999 V2000
   44.5530   35.6770   44.8830 C   0  0  0  0  0  0  0  0  0  0  0  0
   45.1590   35.5510   43.6170 C   0  0  0  0  0  0  0  0  0  0  0  0
   46.0570   34.5110   43.4010 C   0  0  0  0  0  0  0  0  0  0  0  0
   46.3080   33.6580   44.4290 N   0  0  0  0  0  0  0  0  0  0  0  0
   45.7210   33.7870   45.6400 C   0  0  0  0  0  0  0  0  0  0  0  0
   44.8400   34.8020   45.8630 N   0  0  0  0  0  0  0  0  0  0  0  0
   46.0100   32.8690   46.7000 N   0  0  0  0  0  0  0  0  0  0  0  0
   45.0620   32.7960   47.7870 C   0  0  0  0  0  0  0  0  0  0  0  0
   45.5620   32.0620   48.9850 C   0  0  0  0  0  0  0  0  0  0  0  0
   46.4040   30.9110   48.5400 C   0  0  0  0  0  0  0  0  0  0  0  0
   47.6340   31.5030   47.9030 C   0  0  0  0  0  0  0  0  0  0  0  0
   47.2280   32.0950   46.5860 C   0  0  1  0  0  0  0  0  0  0  0  0
   47.2410   31.2120   45.5280 O   0  0  0  0  0  0  0  0  0  0  0  0
   43.8418   36.4950   45.0705 H   0  0  0  0  0  0  0  0  0  0  0  0
   44.9256   36.2638   42.8124 H   0  0  0  0  0  0  0  0  0  0  0  0
   46.5500   34.3825   42.4261 H   0  0  0  0  0  0  0  0  0  0  0  0
   44.8072   33.8216   48.0922 H   0  0  0  0  0  0  0  0  0  0  0  0
   44.1932   32.2351   47.4120 H   0  0  0  0  0  0  0  0  0  0  0  0
   46.1649   32.7401   49.6068 H   0  0  0  0  0  0  0  0  0  0  0  0
   44.7098   31.6908   49.5732 H   0  0  0  0  0  0  0  0  0  0  0  0
   46.6846   30.2892   49.4029 H   0  0  0  0  0  0  0  0  0  0  0  0
   45.8589   30.2691   47.8323 H   0  0  0  0  0  0  0  0  0  0  0  0
   48.0518   32.2863   48.5526 H   0  0  0  0  0  0  0  0  0  0  0  0
   48.4014   30.7287   47.7562 H   0  0  0  0  0  0  0  0  0  0  0  0
   48.0241   32.8052   46.3178 H   0  0  0  0  0  0  0  0  0  0  0  0
   47.2547   30.2841   45.8728 H   0  0  0  0  0  0  0  0  0  0  0  0
  1  6  2  0
  2  1  1  0
  3  2  2  0
  3  4  1  0
  4  5  2  0
  5  6  1  0
  5  7  1  0
  7  8  1  0
  8  9  1  0
 10  9  1  0
 11 10  1  0
 12  7  1  0
 12 11  1  0
 13 12  1  0
  1 14  1  0
  2 15  1  0
  3 16  1  0
  8 17  1  0
  8 18  1  0
  9 19  1  0
  9 20  1  0
 10 21  1  0
 10 22  1  0
 11 23  1  0
 11 24  1  0
 12 25  1  6
 13 26  1  0
M  ISO  8  14  14  15  14  16  14  17  13  18  13  19  13  20  13  21  13
M  ISO  5  22  13  23  13  24  13  25  13  26   3
M  END
>  <minimizedAffinity>  (1) 
-4.73699903

>  <minimizedRMSD>  (1) 
0.0597133711

$$$$
