
     RDKit          3D

 35 37  0  0  1  0  0  0  0  0999 V2000
   44.6930   35.3130   45.4770 C   0  0  0  0  0  0  0  0  0  0  0  0
   44.5770   36.1150   44.3210 C   0  0  0  0  0  0  0  0  0  0  0  0
   45.1520   35.6570   43.1160 C   0  0  0  0  0  0  0  0  0  0  0  0
   45.7870   34.4620   43.1430 N   0  0  0  0  0  0  0  0  0  0  0  0
   45.8820   33.7120   44.2720 C   0  0  0  0  0  0  0  0  0  0  0  0
   45.3310   34.1410   45.4440 N   0  0  0  0  0  0  0  0  0  0  0  0
   46.5870   32.4600   44.1970 N   0  0  0  0  0  0  0  0  0  0  0  0
   46.4070   31.5710   45.3400 C   0  0  0  0  0  0  0  0  0  0  0  0
   47.4060   30.4850   45.4460 C   0  0  0  0  0  0  0  0  0  0  0  0
   47.8190   30.0170   44.0860 C   0  0  0  0  0  0  0  0  0  0  0  0
   48.4810   31.1870   43.4090 C   0  0  0  0  0  0  0  0  0  0  0  0
   47.3960   32.1570   43.0570 C   0  0  2  0  0  0  0  0  0  0  0  0
   46.6800   32.9220   40.3880 F   0  0  0  0  0  0  0  0  0  0  0  0
   47.5780   33.7140   41.0420 C   0  0  0  0  0  0  0  0  0  0  0  0
   47.9250   33.3450   42.3420 C   0  0  0  0  0  0  0  0  0  0  0  0
   48.8450   34.1920   42.9650 C   0  0  0  0  0  0  0  0  0  0  0  0
   49.3840   35.3100   42.3680 C   0  0  0  0  0  0  0  0  0  0  0  0
   49.0130   35.6360   41.0820 C   0  0  0  0  0  0  0  0  0  0  0  0
   48.1120   34.8310   40.4360 C   0  0  0  0  0  0  0  0  0  0  0  0
   44.2496   35.6602   46.4219 H   0  0  0  0  0  0  0  0  0  0  0  0
   44.0483   37.0789   44.3586 H   0  0  0  0  0  0  0  0  0  0  0  0
   45.0866   36.2484   42.1908 H   0  0  0  0  0  0  0  0  0  0  0  0
   46.4619   32.1769   46.2565 H   0  0  0  0  0  0  0  0  0  0  0  0
   45.4319   31.0815   45.2004 H   0  0  0  0  0  0  0  0  0  0  0  0
   48.2899   30.8578   45.9843 H   0  0  0  0  0  0  0  0  0  0  0  0
   46.9574   29.6414   45.9911 H   0  0  0  0  0  0  0  0  0  0  0  0
   48.5262   29.1788   44.1720 H   0  0  0  0  0  0  0  0  0  0  0  0
   46.9518   29.6643   43.5085 H   0  0  0  0  0  0  0  0  0  0  0  0
   49.2038   31.6590   44.0907 H   0  0  0  0  0  0  0  0  0  0  0  0
   49.0273   30.8644   42.5104 H   0  0  0  0  0  0  0  0  0  0  0  0
   46.7190   31.6782   42.3342 H   0  0  0  0  0  0  0  0  0  0  0  0
   49.1570   33.9520   43.9921 H   0  0  0  0  0  0  0  0  0  0  0  0
   50.1045   35.9372   42.9134 H   0  0  0  0  0  0  0  0  0  0  0  0
   49.4311   36.5235   40.5845 H   0  0  0  0  0  0  0  0  0  0  0  0
   47.8075   35.0821   39.4092 H   0  0  0  0  0  0  0  0  0  0  0  0
  2  1  2  0
  3  4  2  0
  3  2  1  0
  4  5  1  0
  5  6  2  0
  6  1  1  0
  7  5  1  0
  7  8  1  0
  8  9  1  0
 10  9  1  0
 11 10  1  0
 12 11  1  0
 12  7  1  0
 13 14  1  0
 14 15  2  0
 15 16  1  0
 15 12  1  0
 17 16  2  0
 18 17  1  0
 19 14  1  0
 19 18  2  0
  1 20  1  0
  2 21  1  0
  3 22  1  0
  8 23  1  0
  8 24  1  0
  9 25  1  0
  9 26  1  0
 10 27  1  0
 10 28  1  0
 11 29  1  0
 11 30  1  0
 12 31  1  6
 16 32  1  0
 17 33  1  0
 18 34  1  0
 19 35  1  0
M  ISO  8  20  14  21  14  22  14  23  13  24  13  25  13  26  13  27  13
M  ISO  8  28  13  29  13  30  13  31  13  32  14  33  14  34  14  35  14
M  END
>  <minimizedAffinity>  (1) 
-5.84345913

>  <minimizedRMSD>  (1) 
3.46156192

$$$$
