
     RDKit          3D

 42 45  0  0  1  0  0  0  0  0999 V2000
   44.5440   35.4490   45.6670 C   0  0  0  0  0  0  0  0  0  0  0  0
   44.4080   35.9820   44.3640 C   0  0  0  0  0  0  0  0  0  0  0  0
   44.9210   35.2510   43.2740 C   0  0  0  0  0  0  0  0  0  0  0  0
   45.5220   34.0670   43.5490 N   0  0  0  0  0  0  0  0  0  0  0  0
   45.6390   33.5790   44.8150 C   0  0  0  0  0  0  0  0  0  0  0  0
   45.1470   34.2760   45.8760 N   0  0  0  0  0  0  0  0  0  0  0  0
   46.2920   32.3180   44.9860 N   0  0  0  0  0  0  0  0  0  0  0  0
   46.1270   31.7080   46.3050 C   0  0  0  0  0  0  0  0  0  0  0  0
   47.0900   30.6340   46.6150 C   0  0  0  0  0  0  0  0  0  0  0  0
   47.4550   29.8620   45.3910 C   0  0  0  0  0  0  0  0  0  0  0  0
   48.1000   30.8220   44.4470 C   0  0  0  0  0  0  0  0  0  0  0  0
   47.0470   31.7260   43.9100 C   0  0  2  0  0  0  0  0  0  0  0  0
   46.4950   31.7240   41.1110 F   0  0  0  0  0  0  0  0  0  0  0  0
   47.3130   32.6980   41.5770 C   0  0  0  0  0  0  0  0  0  0  0  0
   47.5880   32.7150   42.9340 C   0  0  0  0  0  0  0  0  0  0  0  0
   48.4320   33.7390   43.3580 C   0  0  0  0  0  0  0  0  0  0  0  0
   48.9700   34.6820   42.5140 C   0  0  0  0  0  0  0  0  0  0  0  0
   48.6730   34.6310   41.1790 C   0  0  0  0  0  0  0  0  0  0  0  0
   47.8390   33.6280   40.7220 C   0  0  0  0  0  0  0  0  0  0  0  0
   47.5810   33.6540   39.2930 C   0  0  0  0  0  0  0  0  0  0  0  0
   48.3130   34.3080   38.3990 C   0  0  0  0  0  0  0  0  0  0  0  0
   48.0850   34.3410   37.0640 C   0  0  0  0  0  0  0  0  0  0  0  0
   46.8680   33.5210   36.7210 C   0  0  0  0  0  0  0  0  0  0  0  0
   46.3080   32.8740   38.4010 S   0  0  0  0  0  0  0  0  0  0  0  0
   44.1456   36.0113   46.5244 H   0  0  0  0  0  0  0  0  0  0  0  0
   43.9106   36.9500   44.2043 H   0  0  0  0  0  0  0  0  0  0  0  0
   44.8374   35.6252   42.2430 H   0  0  0  0  0  0  0  0  0  0  0  0
   46.2386   32.4970   47.0633 H   0  0  0  0  0  0  0  0  0  0  0  0
   45.1310   31.2411   46.3078 H   0  0  0  0  0  0  0  0  0  0  0  0
   48.0002   31.0811   47.0412 H   0  0  0  0  0  0  0  0  0  0  0  0
   46.6216   29.9447   47.3330 H   0  0  0  0  0  0  0  0  0  0  0  0
   48.1573   29.0554   45.6483 H   0  0  0  0  0  0  0  0  0  0  0  0
   46.5651   29.4019   44.9366 H   0  0  0  0  0  0  0  0  0  0  0  0
   48.8613   31.4119   44.9784 H   0  0  0  0  0  0  0  0  0  0  0  0
   48.5874   30.2768   43.6253 H   0  0  0  0  0  0  0  0  0  0  0  0
   46.3389   31.1219   43.3237 H   0  0  0  0  0  0  0  0  0  0  0  0
   48.6820   33.7965   44.4277 H   0  0  0  0  0  0  0  0  0  0  0  0
   49.6313   35.4681   42.9073 H   0  0  0  0  0  0  0  0  0  0  0  0
   49.0900   35.3739   40.4831 H   0  0  0  0  0  0  0  0  0  0  0  0
   49.1795   34.8718   38.7748 H   0  0  0  0  0  0  0  0  0  0  0  0
   48.7003   34.8882   36.3346 H   0  0  0  0  0  0  0  0  0  0  0  0
   46.4173   33.3436   35.7334 H   0  0  0  0  0  0  0  0  0  0  0  0
  1  6  2  0
  2  1  1  0
  3  4  1  0
  3  2  2  0
  4  5  2  0
  5  7  1  0
  5  6  1  0
  7  8  1  0
  8  9  1  0
 10  9  1  0
 11 10  1  0
 12 11  1  0
 12  7  1  0
 13 14  1  0
 14 15  2  0
 15 16  1  0
 15 12  1  0
 17 16  2  0
 18 17  1  0
 19 18  2  0
 19 14  1  0
 20 19  1  0
 21 20  2  0
 22 21  1  0
 23 22  2  0
 23 24  1  0
 24 20  1  0
  1 25  1  0
  2 26  1  0
  3 27  1  0
  8 28  1  0
  8 29  1  0
  9 30  1  0
  9 31  1  0
 10 32  1  0
 10 33  1  0
 11 34  1  0
 11 35  1  0
 12 36  1  6
 16 37  1  0
 17 38  1  0
 18 39  1  0
 21 40  1  0
 22 41  1  0
 23 42  1  0
M  ISO  8  25  14  26  14  27  14  28  13  29  13  30  13  31  13  32  13
M  ISO  8  33  13  34  13  35  13  36  13  37  14  38  14  39  14  40  14
M  ISO  2  41  14  42  14
M  END
>  <minimizedAffinity>  (1) 
-5.96004009

>  <minimizedRMSD>  (1) 
1.24380255

$$$$
