
     RDKit          3D

 36 38  0  0  1  0  0  0  0  0999 V2000
   44.6780   35.3480   45.4270 C   0  0  0  0  0  0  0  0  0  0  0  0
   44.5180   36.0540   44.2240 C   0  0  0  0  0  0  0  0  0  0  0  0
   45.0750   35.5000   43.0610 C   0  0  0  0  0  0  0  0  0  0  0  0
   45.7290   34.3310   43.1540 N   0  0  0  0  0  0  0  0  0  0  0  0
   45.8690   33.6680   44.3430 C   0  0  0  0  0  0  0  0  0  0  0  0
   45.3390   34.1780   45.4910 N   0  0  0  0  0  0  0  0  0  0  0  0
   46.5800   32.4280   44.3560 N   0  0  0  0  0  0  0  0  0  0  0  0
   46.4430   31.6270   45.5630 C   0  0  0  0  0  0  0  0  0  0  0  0
   47.4510   30.5610   45.7240 C   0  0  0  0  0  0  0  0  0  0  0  0
   47.8570   29.9970   44.3980 C   0  0  0  0  0  0  0  0  0  0  0  0
   48.4720   31.1210   43.6170 C   0  0  0  0  0  0  0  0  0  0  0  0
   47.3730   32.0410   43.2170 C   0  0  2  0  0  0  0  0  0  0  0  0
   46.7560   32.4670   40.4510 F   0  0  0  0  0  0  0  0  0  0  0  0
   47.5690   33.3860   41.0550 C   0  0  0  0  0  0  0  0  0  0  0  0
   47.8710   33.1800   42.4060 C   0  0  0  0  0  0  0  0  0  0  0  0
   48.7030   34.1500   42.9630 C   0  0  0  0  0  0  0  0  0  0  0  0
   49.1980   35.2300   42.2650 C   0  0  0  0  0  0  0  0  0  0  0  0
   48.8760   35.3920   40.9430 C   0  0  0  0  0  0  0  0  0  0  0  0
   48.0600   34.4630   40.3490 C   0  0  0  0  0  0  0  0  0  0  0  0
   47.7320   34.6210   39.0200 O   0  0  0  0  0  0  0  0  0  0  0  0
   44.2480   35.7660   46.3492 H   0  0  0  0  0  0  0  0  0  0  0  0
   43.9741   37.0097   44.1940 H   0  0  0  0  0  0  0  0  0  0  0  0
   44.9778   36.0131   42.0929 H   0  0  0  0  0  0  0  0  0  0  0  0
   46.5178   32.3006   46.4294 H   0  0  0  0  0  0  0  0  0  0  0  0
   45.4700   31.1198   45.4856 H   0  0  0  0  0  0  0  0  0  0  0  0
   48.3379   30.9779   46.2236 H   0  0  0  0  0  0  0  0  0  0  0  0
   47.0111   29.7530   46.3269 H   0  0  0  0  0  0  0  0  0  0  0  0
   48.5898   29.1888   44.5389 H   0  0  0  0  0  0  0  0  0  0  0  0
   46.9906   29.5760   43.8669 H   0  0  0  0  0  0  0  0  0  0  0  0
   49.2020   31.6569   44.2414 H   0  0  0  0  0  0  0  0  0  0  0  0
   48.9966   30.7353   42.7304 H   0  0  0  0  0  0  0  0  0  0  0  0
   46.6902   31.4964   42.5482 H   0  0  0  0  0  0  0  0  0  0  0  0
   48.9808   34.0471   44.0224 H   0  0  0  0  0  0  0  0  0  0  0  0
   49.8497   35.9599   42.7675 H   0  0  0  0  0  0  0  0  0  0  0  0
   49.2632   36.2479   40.3708 H   0  0  0  0  0  0  0  0  0  0  0  0
   47.1444   33.9612   38.5733 H   0  0  0  0  0  0  0  0  0  0  0  0
  1  6  2  0
  2  1  1  0
  3  4  1  0
  3  2  2  0
  4  5  2  0
  5  7  1  0
  5  6  1  0
  7  8  1  0
  8  9  1  0
 10  9  1  0
 11 10  1  0
 12 11  1  0
 12  7  1  0
 13 14  1  0
 14 15  2  0
 15 16  1  0
 15 12  1  0
 17 16  2  0
 18 17  1  0
 19 18  2  0
 19 14  1  0
 20 19  1  0
  1 21  1  0
  2 22  1  0
  3 23  1  0
  8 24  1  0
  8 25  1  0
  9 26  1  0
  9 27  1  0
 10 28  1  0
 10 29  1  0
 11 30  1  0
 11 31  1  0
 12 32  1  6
 16 33  1  0
 17 34  1  0
 18 35  1  0
 20 36  1  0
M  ISO  8  21  14  22  14  23  14  24  13  25  13  26  13  27  13  28  13
M  ISO  8  29  13  30  13  31  13  32  13  33  14  34  14  35  14  36   3
M  END
>  <minimizedAffinity>  (1) 
-5.90680647

>  <minimizedRMSD>  (1) 
0.26481083

$$$$
