
     RDKit          3D

 41 43  0  0  1  0  0  0  0  0999 V2000
   44.6560   35.3380   45.4480 C   0  0  0  0  0  0  0  0  0  0  0  0
   44.4170   35.9500   44.2070 C   0  0  0  0  0  0  0  0  0  0  0  0
   44.9200   35.3290   43.0520 C   0  0  0  0  0  0  0  0  0  0  0  0
   45.6060   34.1750   43.2020 N   0  0  0  0  0  0  0  0  0  0  0  0
   45.8180   33.6100   44.4150 C   0  0  0  0  0  0  0  0  0  0  0  0
   45.3380   34.2000   45.5410 N   0  0  0  0  0  0  0  0  0  0  0  0
   46.5640   32.3760   44.4770 N   0  0  0  0  0  0  0  0  0  0  0  0
   46.5060   31.6680   45.7430 C   0  0  0  0  0  0  0  0  0  0  0  0
   47.5480   30.6300   45.9240 C   0  0  0  0  0  0  0  0  0  0  0  0
   47.8700   29.9720   44.6210 C   0  0  0  0  0  0  0  0  0  0  0  0
   48.4310   31.0460   43.7230 C   0  0  0  0  0  0  0  0  0  0  0  0
   47.2980   31.9220   43.3230 C   0  0  2  0  0  0  0  0  0  0  0  0
   46.6590   32.0190   40.5300 F   0  0  0  0  0  0  0  0  0  0  0  0
   47.4040   33.0380   41.0320 C   0  0  0  0  0  0  0  0  0  0  0  0
   47.7220   33.0030   42.3990 C   0  0  0  0  0  0  0  0  0  0  0  0
   48.4840   34.0730   42.8580 C   0  0  0  0  0  0  0  0  0  0  0  0
   48.9120   35.1060   42.0540 C   0  0  0  0  0  0  0  0  0  0  0  0
   48.5820   35.1060   40.7190 C   0  0  0  0  0  0  0  0  0  0  0  0
   47.8290   34.0690   40.2200 C   0  0  0  0  0  0  0  0  0  0  0  0
   47.4270   33.9900   38.7920 C   0  0  0  0  0  0  0  0  0  0  0  0
   48.5120   34.5560   37.8860 C   0  0  0  0  0  0  0  0  0  0  0  0
   44.2706   35.8103   46.3636 H   0  0  0  0  0  0  0  0  0  0  0  0
   43.8509   36.8908   44.1412 H   0  0  0  0  0  0  0  0  0  0  0  0
   44.7603   35.7686   42.0564 H   0  0  0  0  0  0  0  0  0  0  0  0
   46.6134   32.4052   46.5523 H   0  0  0  0  0  0  0  0  0  0  0  0
   45.5399   31.1424   45.7593 H   0  0  0  0  0  0  0  0  0  0  0  0
   48.4582   31.0984   46.3267 H   0  0  0  0  0  0  0  0  0  0  0  0
   47.1706   29.8677   46.6215 H   0  0  0  0  0  0  0  0  0  0  0  0
   48.6142   29.1761   44.7714 H   0  0  0  0  0  0  0  0  0  0  0  0
   46.9750   29.5114   44.1773 H   0  0  0  0  0  0  0  0  0  0  0  0
   49.1877   31.6326   44.2646 H   0  0  0  0  0  0  0  0  0  0  0  0
   48.9126   30.6030   42.8388 H   0  0  0  0  0  0  0  0  0  0  0  0
   46.5883   31.3230   42.7335 H   0  0  0  0  0  0  0  0  0  0  0  0
   48.7600   34.0950   43.9226 H   0  0  0  0  0  0  0  0  0  0  0  0
   49.5131   35.9247   42.4764 H   0  0  0  0  0  0  0  0  0  0  0  0
   48.9149   35.9222   40.0610 H   0  0  0  0  0  0  0  0  0  0  0  0
   47.2497   32.9374   38.5262 H   0  0  0  0  0  0  0  0  0  0  0  0
   46.5109   34.5829   38.6532 H   0  0  0  0  0  0  0  0  0  0  0  0
   49.3204   34.9777   38.5013 H   0  0  0  0  0  0  0  0  0  0  0  0
   48.9151   33.7533   37.2511 H   0  0  0  0  0  0  0  0  0  0  0  0
   48.0843   35.3459   37.2511 H   0  0  0  0  0  0  0  0  0  0  0  0
  1  6  2  0
  2  1  1  0
  3  4  1  0
  3  2  2  0
  4  5  2  0
  5  7  1  0
  5  6  1  0
  7  8  1  0
  8  9  1  0
 10  9  1  0
 11 10  1  0
 12 11  1  0
 12  7  1  0
 13 14  1  0
 14 15  2  0
 15 16  1  0
 15 12  1  0
 17 16  2  0
 18 17  1  0
 19 18  2  0
 19 14  1  0
 20 19  1  0
 21 20  1  0
  1 22  1  0
  2 23  1  0
  3 24  1  0
  8 25  1  0
  8 26  1  0
  9 27  1  0
  9 28  1  0
 10 29  1  0
 10 30  1  0
 11 31  1  0
 11 32  1  0
 12 33  1  6
 16 34  1  0
 17 35  1  0
 18 36  1  0
 20 37  1  0
 20 38  1  0
 21 39  1  0
 21 40  1  0
 21 41  1  0
M  ISO  8  22  14  23  14  24  14  25  13  26  13  27  13  28  13  29  13
M  ISO  8  30  13  31  13  32  13  33  13  34  14  35  14  36  14  37   8
M  ISO  4  38   8  39   8  40   8  41   8
M  END
>  <minimizedAffinity>  (1) 
-5.76146603

>  <minimizedRMSD>  (1) 
0.615384161

$$$$
