
     RDKit          3D

 37 39  0  0  1  0  0  0  0  0999 V2000
   44.5780   35.6080   45.0660 C   0  0  0  0  0  0  0  0  0  0  0  0
   44.4110   36.1970   43.7860 C   0  0  0  0  0  0  0  0  0  0  0  0
   44.9660   35.5430   42.6650 C   0  0  0  0  0  0  0  0  0  0  0  0
   45.6290   34.3870   42.8900 N   0  0  0  0  0  0  0  0  0  0  0  0
   45.7730   33.8490   44.1250 C   0  0  0  0  0  0  0  0  0  0  0  0
   45.2440   34.4630   45.2220 N   0  0  0  0  0  0  0  0  0  0  0  0
   46.4950   32.6160   44.2490 N   0  0  0  0  0  0  0  0  0  0  0  0
   46.3710   31.9320   45.5330 C   0  0  0  0  0  0  0  0  0  0  0  0
   47.3720   30.8900   45.7930 C   0  0  0  0  0  0  0  0  0  0  0  0
   47.7720   30.2030   44.5200 C   0  0  0  0  0  0  0  0  0  0  0  0
   48.3730   31.2410   43.6300 C   0  0  0  0  0  0  0  0  0  0  0  0
   47.2810   32.1260   43.1450 C   0  0  2  0  0  0  0  0  0  0  0  0
   46.8710   32.1340   40.3100 F   0  0  0  0  0  0  0  0  0  0  0  0
   47.5700   33.1810   40.8470 C   0  0  0  0  0  0  0  0  0  0  0  0
   47.7700   33.1800   42.2290 C   0  0  0  0  0  0  0  0  0  0  0  0
   48.4860   34.2660   42.7220 C   0  0  0  0  0  0  0  0  0  0  0  0
   48.9740   35.2850   41.9360 C   0  0  0  0  0  0  0  0  0  0  0  0
   48.7580   35.2530   40.5760 C   0  0  0  0  0  0  0  0  0  0  0  0
   48.0630   34.2080   40.0530 C   0  0  0  0  0  0  0  0  0  0  0  0
   47.8390   34.1850   38.6130 C   0  0  0  0  0  0  0  0  0  0  0  0
   48.5790   34.7920   37.8030 O   0  0  0  0  0  0  0  0  0  0  0  0
   44.1492   36.1061   45.9481 H   0  0  0  0  0  0  0  0  0  0  0  0
   43.8611   37.1426   43.6698 H   0  0  0  0  0  0  0  0  0  0  0  0
   44.8632   35.9568   41.6510 H   0  0  0  0  0  0  0  0  0  0  0  0
   46.4533   32.6871   46.3286 H   0  0  0  0  0  0  0  0  0  0  0  0
   45.3989   31.4178   45.5087 H   0  0  0  0  0  0  0  0  0  0  0  0
   48.2611   31.3502   46.2487 H   0  0  0  0  0  0  0  0  0  0  0  0
   46.9347   30.1440   46.4729 H   0  0  0  0  0  0  0  0  0  0  0  0
   48.5097   29.4152   44.7323 H   0  0  0  0  0  0  0  0  0  0  0  0
   46.9018   29.7320   44.0395 H   0  0  0  0  0  0  0  0  0  0  0  0
   49.1097   31.8329   44.1930 H   0  0  0  0  0  0  0  0  0  0  0  0
   48.8815   30.7638   42.7793 H   0  0  0  0  0  0  0  0  0  0  0  0
   46.5994   31.5261   42.5241 H   0  0  0  0  0  0  0  0  0  0  0  0
   48.6734   34.3132   43.8049 H   0  0  0  0  0  0  0  0  0  0  0  0
   49.5316   36.1176   42.3899 H   0  0  0  0  0  0  0  0  0  0  0  0
   49.1394   36.0553   39.9273 H   0  0  0  0  0  0  0  0  0  0  0  0
   46.9860   33.6118   38.2208 H   0  0  0  0  0  0  0  0  0  0  0  0
  1  6  2  0
  2  1  1  0
  3  4  1  0
  3  2  2  0
  4  5  2  0
  5  7  1  0
  5  6  1  0
  7  8  1  0
  8  9  1  0
 10  9  1  0
 11 10  1  0
 12 11  1  0
 12  7  1  0
 13 14  1  0
 14 15  2  0
 15 16  1  0
 15 12  1  0
 17 16  2  0
 18 17  1  0
 19 18  2  0
 19 14  1  0
 20 19  1  0
 21 20  2  0
  1 22  1  0
  2 23  1  0
  3 24  1  0
  8 25  1  0
  8 26  1  0
  9 27  1  0
  9 28  1  0
 10 29  1  0
 10 30  1  0
 11 31  1  0
 11 32  1  0
 12 33  1  6
 16 34  1  0
 17 35  1  0
 18 36  1  0
 20 37  1  0
M  ISO  8  22  14  23  14  24  14  25  13  26  13  27  13  28  13  29  13
M  ISO  8  30  13  31  13  32  13  33  13  34  14  35  14  36  14  37   6
M  END
>  <minimizedAffinity>  (1) 
-5.71246719

>  <minimizedRMSD>  (1) 
0.72461772

$$$$
