
     RDKit          3D

 39 41  0  0  1  0  0  0  0  0999 V2000
   45.3400   33.7710   44.1170 C   0  0  0  0  0  0  0  0  0  0  0  0
   46.4660   33.6560   43.2410 C   0  0  0  0  0  0  0  0  0  0  0  0
   47.5750   32.9230   43.7030 C   0  0  0  0  0  0  0  0  0  0  0  0
   47.4970   32.3840   44.9290 N   0  0  0  0  0  0  0  0  0  0  0  0
   46.4430   32.4950   45.7440 C   0  0  0  0  0  0  0  0  0  0  0  0
   45.3690   33.1900   45.3280 N   0  0  0  0  0  0  0  0  0  0  0  0
   46.4760   31.8930   46.9940 N   0  0  0  0  0  0  0  0  0  0  0  0
   47.4950   32.2470   47.9400 C   0  0  0  0  0  0  0  0  0  0  0  0
   47.6560   31.2940   49.0810 C   0  0  0  0  0  0  0  0  0  0  0  0
   46.4730   30.6080   49.4990 N   0  0  0  0  0  0  0  0  0  0  0  0
   45.2860   31.0460   48.8340 C   0  0  0  0  0  0  0  0  0  0  0  0
   45.4890   30.9030   47.3630 C   0  0  2  0  0  0  0  0  0  0  0  0
   45.8590   29.5150   46.9750 C   0  0  0  0  0  0  0  0  0  0  0  0
   44.7250   27.4800   47.5080 C   0  0  0  0  0  0  0  0  0  0  0  0
   44.7580   28.6070   46.6750 C   0  0  0  0  0  0  0  0  0  0  0  0
   43.7730   28.7200   45.6940 C   0  0  0  0  0  0  0  0  0  0  0  0
   42.7960   27.7390   45.5580 C   0  0  0  0  0  0  0  0  0  0  0  0
   42.7770   26.6280   46.3920 C   0  0  0  0  0  0  0  0  0  0  0  0
   43.7420   26.4920   47.3720 C   0  0  0  0  0  0  0  0  0  0  0  0
   45.6550   27.2530   48.5260 O   0  0  0  0  0  0  0  0  0  0  0  0
   43.7270   25.3850   48.2070 O   0  0  0  0  0  0  0  0  0  0  0  0
   44.4509   34.3351   43.7987 H   0  0  0  0  0  0  0  0  0  0  0  0
   46.4646   34.1226   42.2449 H   0  0  0  0  0  0  0  0  0  0  0  0
   48.4735   32.7966   43.0812 H   0  0  0  0  0  0  0  0  0  0  0  0
   48.4539   32.3027   47.4039 H   0  0  0  0  0  0  0  0  0  0  0  0
   47.1853   33.2058   48.3814 H   0  0  0  0  0  0  0  0  0  0  0  0
   48.3967   30.5367   48.7845 H   0  0  0  0  0  0  0  0  0  0  0  0
   47.9596   31.9101   49.9402 H   0  0  0  0  0  0  0  0  0  0  0  0
   46.5976   29.6028   49.3123 H   0  0  0  0  0  0  0  0  0  0  0  0
   44.4327   30.4293   49.1528 H   0  0  0  0  0  0  0  0  0  0  0  0
   45.0778   32.0963   49.0860 H   0  0  0  0  0  0  0  0  0  0  0  0
   44.5547   31.0819   46.8107 H   0  0  0  0  0  0  0  0  0  0  0  0
   46.4946   29.5767   46.0793 H   0  0  0  0  0  0  0  0  0  0  0  0
   46.3550   29.0884   47.8593 H   0  0  0  0  0  0  0  0  0  0  0  0
   43.7686   29.5914   45.0227 H   0  0  0  0  0  0  0  0  0  0  0  0
   42.0271   27.8445   44.7785 H   0  0  0  0  0  0  0  0  0  0  0  0
   41.9980   25.8606   46.2729 H   0  0  0  0  0  0  0  0  0  0  0  0
   45.5867   26.4399   49.0866 H   0  0  0  0  0  0  0  0  0  0  0  0
   44.4173   25.2856   48.9097 H   0  0  0  0  0  0  0  0  0  0  0  0
  1  6  2  0
  2  3  2  0
  2  1  1  0
  3  4  1  0
  4  5  2  0
  5  7  1  0
  6  5  1  0
  7 12  1  0
  7  8  1  0
  8  9  1  0
  9 10  1  0
 11 10  1  0
 12 11  1  0
 13 12  1  0
 14 20  1  0
 15 13  1  0
 15 14  2  0
 16 15  1  0
 17 16  2  0
 17 18  1  0
 18 19  2  0
 19 14  1  0
 19 21  1  0
  1 22  1  0
  2 23  1  0
  3 24  1  0
  8 25  1  0
  8 26  1  0
  9 27  1  0
  9 28  1  0
 10 29  1  0
 11 30  1  0
 11 31  1  0
 12 32  1  6
 13 33  1  0
 13 34  1  0
 16 35  1  0
 17 36  1  0
 18 37  1  0
 20 38  1  0
 21 39  1  0
M  ISO  8  22  14  23  14  24  14  25  13  26  13  27  13  28  13  29   5
M  ISO  8  30  13  31  13  32  13  33   8  34   8  35  14  36  14  37  14
M  ISO  2  38   3  39   3
M  END
>  <minimizedAffinity>  (1) 
-5.50786495

>  <minimizedRMSD>  (1) 
2.38637042

$$$$
