
     RDKit          3D

 31 32  0  0  1  0  0  0  0  0999 V2000
   45.0500   34.6750   44.9260 C   0  0  0  0  0  0  0  0  0  0  0  0
   45.9460   34.5210   43.8210 C   0  0  0  0  0  0  0  0  0  0  0  0
   47.0040   33.5930   43.9510 C   0  0  0  0  0  0  0  0  0  0  0  0
   47.0900   32.9170   45.1180 N   0  0  0  0  0  0  0  0  0  0  0  0
   46.2510   33.0680   46.1420 C   0  0  0  0  0  0  0  0  0  0  0  0
   45.2390   33.9500   46.0250 N   0  0  0  0  0  0  0  0  0  0  0  0
   46.4330   32.3140   47.3100 N   0  0  0  0  0  0  0  0  0  0  0  0
   47.6670   32.4050   48.0330 C   0  0  0  0  0  0  0  0  0  0  0  0
   47.8850   31.3040   49.0120 C   0  0  0  0  0  0  0  0  0  0  0  0
   46.7260   30.7290   49.5970 N   0  0  0  0  0  0  0  0  0  0  0  0
   45.5110   31.4250   49.2570 C   0  0  0  0  0  0  0  0  0  0  0  0
   45.3740   31.4440   47.7780 C   0  0  2  0  0  0  0  0  0  0  0  0
   45.4770   30.0640   47.1620 C   0  0  0  0  0  0  0  0  0  0  0  0
   43.8150   28.6260   45.9540 C   0  0  0  0  0  0  0  0  0  0  0  0
   44.0950   27.5960   46.5990 O   0  0  0  0  0  0  0  0  0  0  0  0
   44.4520   29.8580   46.1800 N   0  0  0  0  0  0  0  0  0  0  0  0
   44.2129   35.3862   44.8671 H   0  0  0  0  0  0  0  0  0  0  0  0
   45.8154   35.1067   42.8991 H   0  0  0  0  0  0  0  0  0  0  0  0
   47.7260   33.4281   43.1377 H   0  0  0  0  0  0  0  0  0  0  0  0
   48.4936   32.3898   47.3074 H   0  0  0  0  0  0  0  0  0  0  0  0
   47.6250   33.3389   48.6127 H   0  0  0  0  0  0  0  0  0  0  0  0
   48.4297   30.5009   48.4939 H   0  0  0  0  0  0  0  0  0  0  0  0
   48.4306   31.7659   49.8480 H   0  0  0  0  0  0  0  0  0  0  0  0
   46.6459   29.7543   49.2738 H   0  0  0  0  0  0  0  0  0  0  0  0
   44.6495   30.9059   49.7024 H   0  0  0  0  0  0  0  0  0  0  0  0
   45.5462   32.4539   49.6445 H   0  0  0  0  0  0  0  0  0  0  0  0
   44.3782   31.8049   47.4811 H   0  0  0  0  0  0  0  0  0  0  0  0
   46.4609   29.9577   46.6818 H   0  0  0  0  0  0  0  0  0  0  0  0
   45.3522   29.3160   47.9588 H   0  0  0  0  0  0  0  0  0  0  0  0
   43.0384   28.5678   45.1772 H   0  0  0  0  0  0  0  0  0  0  0  0
   44.1651   30.6629   45.6049 H   0  0  0  0  0  0  0  0  0  0  0  0
  1  6  2  0
  2  3  2  0
  2  1  1  0
  3  4  1  0
  4  5  2  0
  5  7  1  0
  6  5  1  0
  7 12  1  0
  7  8  1  0
  8  9  1  0
  9 10  1  0
 11 10  1  0
 12 11  1  0
 13 12  1  0
 14 16  1  0
 14 15  2  0
 16 13  1  0
  1 17  1  0
  2 18  1  0
  3 19  1  0
  8 20  1  0
  8 21  1  0
  9 22  1  0
  9 23  1  0
 10 24  1  0
 11 25  1  0
 11 26  1  0
 12 27  1  1
 13 28  1  0
 13 29  1  0
 14 30  1  0
 16 31  1  0
M  ISO  8  17  14  18  14  19  14  20  13  21  13  22  13  23  13  24   5
M  ISO  6  25  13  26  13  27  13  28   8  29   8  30   6
M  END
>  <minimizedAffinity>  (1) 
-5.06518888

>  <minimizedRMSD>  (1) 
1.50923884

$$$$
