
     RDKit          3D

 44 46  0  0  1  0  0  0  0  0999 V2000
   45.0060   34.6300   44.9450 C   0  0  0  0  0  0  0  0  0  0  0  0
   45.9090   34.5710   43.8540 C   0  0  0  0  0  0  0  0  0  0  0  0
   47.0140   33.6980   43.9680 C   0  0  0  0  0  0  0  0  0  0  0  0
   47.1480   32.9790   45.0980 N   0  0  0  0  0  0  0  0  0  0  0  0
   46.2830   33.0460   46.1230 C   0  0  0  0  0  0  0  0  0  0  0  0
   45.2210   33.8740   46.0340 N   0  0  0  0  0  0  0  0  0  0  0  0
   46.4940   32.2650   47.2600 N   0  0  0  0  0  0  0  0  0  0  0  0
   47.7170   32.3900   48.0040 C   0  0  0  0  0  0  0  0  0  0  0  0
   47.9760   31.2480   48.9340 C   0  0  0  0  0  0  0  0  0  0  0  0
   46.8280   30.6200   49.5000 N   0  0  0  0  0  0  0  0  0  0  0  0
   45.5970   31.2490   49.1680 C   0  0  0  0  0  0  0  0  0  0  0  0
   45.4520   31.3190   47.6780 C   0  0  2  0  0  0  0  0  0  0  0  0
   45.6240   29.9840   47.0370 C   0  0  0  0  0  0  0  0  0  0  0  0
   44.7940   28.9880   47.7840 C   0  0  0  0  0  0  0  0  0  0  0  0
   45.0890   27.6900   47.8270 C   0  0  0  0  0  0  0  0  0  0  0  0
   44.2880   26.6660   48.5610 C   0  0  0  0  0  0  0  0  0  0  0  0
   45.7580   24.4060   47.6060 F   0  0  0  0  0  0  0  0  0  0  0  0
   44.5220   24.6270   47.1320 C   0  0  0  0  0  0  0  0  0  0  0  0
   43.7750   25.6960   47.5560 C   0  0  0  0  0  0  0  0  0  0  0  0
   42.4990   25.9400   47.0800 C   0  0  0  0  0  0  0  0  0  0  0  0
   41.9910   25.0440   46.1360 C   0  0  0  0  0  0  0  0  0  0  0  0
   42.7250   23.9580   45.6930 C   0  0  0  0  0  0  0  0  0  0  0  0
   43.9930   23.7550   46.1970 C   0  0  0  0  0  0  0  0  0  0  0  0
   44.1303   35.2941   44.8998 H   0  0  0  0  0  0  0  0  0  0  0  0
   45.7552   35.1820   42.9523 H   0  0  0  0  0  0  0  0  0  0  0  0
   47.7472   33.6081   43.1529 H   0  0  0  0  0  0  0  0  0  0  0  0
   48.5521   32.4530   47.2908 H   0  0  0  0  0  0  0  0  0  0  0  0
   47.6244   33.2939   48.6240 H   0  0  0  0  0  0  0  0  0  0  0  0
   48.5359   30.4825   48.3766 H   0  0  0  0  0  0  0  0  0  0  0  0
   48.5220   31.6814   49.7849 H   0  0  0  0  0  0  0  0  0  0  0  0
   46.7941   29.6466   49.1650 H   0  0  0  0  0  0  0  0  0  0  0  0
   44.7638   30.6676   49.5897 H   0  0  0  0  0  0  0  0  0  0  0  0
   45.5842   32.2673   49.5838 H   0  0  0  0  0  0  0  0  0  0  0  0
   44.4463   31.6439   47.3730 H   0  0  0  0  0  0  0  0  0  0  0  0
   45.2938   30.0304   45.9888 H   0  0  0  0  0  0  0  0  0  0  0  0
   46.6829   29.6872   47.0629 H   0  0  0  0  0  0  0  0  0  0  0  0
   43.9019   29.3431   48.3207 H   0  0  0  0  0  0  0  0  0  0  0  0
   45.9835   27.3493   47.2850 H   0  0  0  0  0  0  0  0  0  0  0  0
   44.9230   26.1470   49.2941 H   0  0  0  0  0  0  0  0  0  0  0  0
   43.4560   27.1397   49.1026 H   0  0  0  0  0  0  0  0  0  0  0  0
   41.9106   26.8012   47.4293 H   0  0  0  0  0  0  0  0  0  0  0  0
   40.9800   25.2064   45.7340 H   0  0  0  0  0  0  0  0  0  0  0  0
   42.3033   23.2660   44.9492 H   0  0  0  0  0  0  0  0  0  0  0  0
   44.5868   22.8951   45.8536 H   0  0  0  0  0  0  0  0  0  0  0  0
  1  6  2  0
  2  3  2  0
  2  1  1  0
  3  4  1  0
  4  5  2  0
  5  7  1  0
  6  5  1  0
  7 12  1  0
  7  8  1  0
  8  9  1  0
  9 10  1  0
 11 10  1  0
 12 11  1  0
 13 12  1  0
 13 14  1  0
 14 15  2  0
 15 16  1  0
 18 19  2  0
 18 17  1  0
 19 16  1  0
 20 19  1  0
 21 20  2  0
 22 21  1  0
 22 23  2  0
 23 18  1  0
  1 24  1  0
  2 25  1  0
  3 26  1  0
  8 27  1  0
  8 28  1  0
  9 29  1  0
  9 30  1  0
 10 31  1  0
 11 32  1  0
 11 33  1  0
 12 34  1  1
 13 35  1  0
 13 36  1  0
 14 37  1  0
 15 38  1  0
 16 39  1  0
 16 40  1  0
 20 41  1  0
 21 42  1  0
 22 43  1  0
 23 44  1  0
M  ISO  8  24  14  25  14  26  14  27  13  28  13  29  13  30  13  31   5
M  ISO  8  32  13  33  13  34  13  35   8  36   8  39   8  40   8  41  14
M  ISO  3  42  14  43  14  44  14
M  END
>  <minimizedAffinity>  (1) 
-5.83068132

>  <minimizedRMSD>  (1) 
0.266095877

$$$$
