
     RDKit          3D

 43 45  0  0  1  0  0  0  0  0999 V2000
   44.9890   34.6020   44.9170 C   0  0  0  0  0  0  0  0  0  0  0  0
   45.9150   34.5760   43.8440 C   0  0  0  0  0  0  0  0  0  0  0  0
   47.0500   33.7450   43.9590 C   0  0  0  0  0  0  0  0  0  0  0  0
   47.1930   33.0180   45.0920 N   0  0  0  0  0  0  0  0  0  0  0  0
   46.3010   33.0530   46.1100 C   0  0  0  0  0  0  0  0  0  0  0  0
   45.2310   33.8440   45.9890 N   0  0  0  0  0  0  0  0  0  0  0  0
   46.5250   32.2700   47.2470 N   0  0  0  0  0  0  0  0  0  0  0  0
   47.7210   32.4380   48.0110 C   0  0  0  0  0  0  0  0  0  0  0  0
   48.0180   31.2960   48.9200 C   0  0  0  0  0  0  0  0  0  0  0  0
   46.8890   30.6180   49.4700 N   0  0  0  0  0  0  0  0  0  0  0  0
   45.6420   31.2170   49.1310 C   0  0  0  0  0  0  0  0  0  0  0  0
   45.5190   31.2900   47.6280 C   0  0  2  0  0  0  0  0  0  0  0  0
   45.7220   29.9610   46.9760 C   0  0  0  0  0  0  0  0  0  0  0  0
   44.8040   28.9680   47.6270 C   0  0  0  0  0  0  0  0  0  0  0  0
   45.1170   27.6960   47.7630 C   0  0  0  0  0  0  0  0  0  0  0  0
   44.2320   26.6770   48.4050 C   0  0  0  0  0  0  0  0  0  0  0  0
   43.7080   25.6820   47.4410 C   0  0  0  0  0  0  0  0  0  0  0  0
   42.4100   25.9470   47.0100 C   0  0  0  0  0  0  0  0  0  0  0  0
   41.8220   25.0830   46.1090 C   0  0  0  0  0  0  0  0  0  0  0  0
   42.5630   24.0000   45.6880 C   0  0  0  0  0  0  0  0  0  0  0  0
   43.8560   23.7850   46.1540 C   0  0  0  0  0  0  0  0  0  0  0  0
   44.4320   24.6270   47.0320 N   0  0  0  0  0  0  0  0  0  0  0  0
   44.0898   35.2336   44.8674 H   0  0  0  0  0  0  0  0  0  0  0  0
   45.7531   35.1880   42.9445 H   0  0  0  0  0  0  0  0  0  0  0  0
   47.7959   33.6897   43.1524 H   0  0  0  0  0  0  0  0  0  0  0  0
   48.5642   32.5553   47.3143 H   0  0  0  0  0  0  0  0  0  0  0  0
   47.5740   33.3239   48.6463 H   0  0  0  0  0  0  0  0  0  0  0  0
   48.6077   30.5605   48.3532 H   0  0  0  0  0  0  0  0  0  0  0  0
   48.5459   31.7340   49.7800 H   0  0  0  0  0  0  0  0  0  0  0  0
   46.8899   29.6488   49.1214 H   0  0  0  0  0  0  0  0  0  0  0  0
   44.8197   30.6106   49.5385 H   0  0  0  0  0  0  0  0  0  0  0  0
   45.5910   32.2304   49.5558 H   0  0  0  0  0  0  0  0  0  0  0  0
   44.5114   31.5832   47.2983 H   0  0  0  0  0  0  0  0  0  0  0  0
   46.7665   29.6404   47.1036 H   0  0  0  0  0  0  0  0  0  0  0  0
   45.5017   30.0304   45.9005 H   0  0  0  0  0  0  0  0  0  0  0  0
   43.8316   29.3163   48.0054 H   0  0  0  0  0  0  0  0  0  0  0  0
   46.0924   27.3621   47.3795 H   0  0  0  0  0  0  0  0  0  0  0  0
   44.8088   26.1476   49.1777 H   0  0  0  0  0  0  0  0  0  0  0  0
   43.3697   27.2098   48.8323 H   0  0  0  0  0  0  0  0  0  0  0  0
   41.8647   26.8275   47.3806 H   0  0  0  0  0  0  0  0  0  0  0  0
   40.7995   25.2524   45.7404 H   0  0  0  0  0  0  0  0  0  0  0  0
   42.1237   23.2921   44.9698 H   0  0  0  0  0  0  0  0  0  0  0  0
   44.4188   22.9095   45.7979 H   0  0  0  0  0  0  0  0  0  0  0  0
  1  6  2  0
  2  3  2  0
  2  1  1  0
  3  4  1  0
  4  5  2  0
  5  7  1  0
  6  5  1  0
  7 12  1  0
  7  8  1  0
  8  9  1  0
  9 10  1  0
 11 10  1  0
 12 11  1  0
 13 14  1  0
 13 12  1  0
 14 15  2  0
 15 16  1  0
 17 16  1  0
 18 17  2  0
 19 18  1  0
 20 19  2  0
 20 21  1  0
 21 22  2  0
 22 17  1  0
  1 23  1  0
  2 24  1  0
  3 25  1  0
  8 26  1  0
  8 27  1  0
  9 28  1  0
  9 29  1  0
 10 30  1  0
 11 31  1  0
 11 32  1  0
 12 33  1  1
 13 34  1  0
 13 35  1  0
 14 36  1  0
 15 37  1  0
 16 38  1  0
 16 39  1  0
 18 40  1  0
 19 41  1  0
 20 42  1  0
 21 43  1  0
M  ISO  8  23  14  24  14  25  14  26  13  27  13  28  13  29  13  30   5
M  ISO  8  31  13  32  13  33  13  34   8  35   8  38   8  39   8  40  14
M  ISO  3  41  14  42  14  43  14
M  END
>  <minimizedAffinity>  (1) 
-5.54075956

>  <minimizedRMSD>  (1) 
0.231616974

$$$$
