
     RDKit          3D

 46 48  0  0  1  0  0  0  0  0999 V2000
   45.0200   34.6980   44.9800 C   0  0  0  0  0  0  0  0  0  0  0  0
   45.8760   34.5610   43.8590 C   0  0  0  0  0  0  0  0  0  0  0  0
   46.9230   33.6370   43.9540 C   0  0  0  0  0  0  0  0  0  0  0  0
   47.0710   32.9220   45.0990 N   0  0  0  0  0  0  0  0  0  0  0  0
   46.2400   33.0690   46.1610 C   0  0  0  0  0  0  0  0  0  0  0  0
   45.2430   33.9560   46.0560 N   0  0  0  0  0  0  0  0  0  0  0  0
   46.4560   32.3050   47.2960 N   0  0  0  0  0  0  0  0  0  0  0  0
   47.7060   32.3720   48.0020 C   0  0  0  0  0  0  0  0  0  0  0  0
   47.9300   31.2350   48.9490 C   0  0  0  0  0  0  0  0  0  0  0  0
   46.7770   30.6850   49.5600 N   0  0  0  0  0  0  0  0  0  0  0  0
   45.5660   31.3900   49.2550 C   0  0  0  0  0  0  0  0  0  0  0  0
   45.3770   31.4220   47.7700 C   0  0  2  0  0  0  0  0  0  0  0  0
   45.4520   30.0640   47.1600 C   0  0  0  0  0  0  0  0  0  0  0  0
   44.8850   29.0810   48.1550 C   0  0  0  0  0  0  0  0  0  0  0  0
   44.9220   27.7710   47.9170 C   0  0  0  0  0  0  0  0  0  0  0  0
   44.3640   26.7580   48.8810 C   0  0  0  0  0  0  0  0  0  0  0  0
   43.8410   25.6770   48.0840 N   0  0  0  0  0  0  0  0  0  0  0  0
   44.9100   25.0060   47.3290 C   0  0  0  0  0  0  0  0  0  0  0  0
   44.1050   24.0700   46.4320 C   0  0  0  0  0  0  0  0  0  0  0  0
   42.8350   24.8700   46.1700 C   0  0  0  0  0  0  0  0  0  0  0  0
   43.0040   26.1180   47.0040 C   0  0  0  0  0  0  0  0  0  0  0  0
   44.1820   35.4102   44.9578 H   0  0  0  0  0  0  0  0  0  0  0  0
   45.7233   35.1585   42.9482 H   0  0  0  0  0  0  0  0  0  0  0  0
   47.6166   33.4919   43.1126 H   0  0  0  0  0  0  0  0  0  0  0  0
   48.5212   32.3731   47.2634 H   0  0  0  0  0  0  0  0  0  0  0  0
   47.6821   33.2907   48.6065 H   0  0  0  0  0  0  0  0  0  0  0  0
   48.4294   30.4290   48.3913 H   0  0  0  0  0  0  0  0  0  0  0  0
   48.5238   31.6558   49.7738 H   0  0  0  0  0  0  0  0  0  0  0  0
   46.6744   29.7109   49.2413 H   0  0  0  0  0  0  0  0  0  0  0  0
   44.7133   30.8769   49.7236 H   0  0  0  0  0  0  0  0  0  0  0  0
   45.6285   32.4177   49.6423 H   0  0  0  0  0  0  0  0  0  0  0  0
   44.3795   31.7871   47.4840 H   0  0  0  0  0  0  0  0  0  0  0  0
   44.8637   30.0378   46.2309 H   0  0  0  0  0  0  0  0  0  0  0  0
   46.4939   29.8082   46.9172 H   0  0  0  0  0  0  0  0  0  0  0  0
   44.4356   29.4510   49.0883 H   0  0  0  0  0  0  0  0  0  0  0  0
   45.3774   27.4158   46.9808 H   0  0  0  0  0  0  0  0  0  0  0  0
   45.1585   26.3893   49.5464 H   0  0  0  0  0  0  0  0  0  0  0  0
   43.5800   27.2009   49.5128 H   0  0  0  0  0  0  0  0  0  0  0  0
   45.4963   25.7244   46.7373 H   0  0  0  0  0  0  0  0  0  0  0  0
   45.6527   24.4953   47.9595 H   0  0  0  0  0  0  0  0  0  0  0  0
   44.6416   23.8591   45.4952 H   0  0  0  0  0  0  0  0  0  0  0  0
   43.9159   23.0857   46.8851 H   0  0  0  0  0  0  0  0  0  0  0  0
   42.7464   25.1229   45.1031 H   0  0  0  0  0  0  0  0  0  0  0  0
   41.9239   24.3106   46.4289 H   0  0  0  0  0  0  0  0  0  0  0  0
   43.4929   26.9160   46.4260 H   0  0  0  0  0  0  0  0  0  0  0  0
   42.0483   26.5438   47.3437 H   0  0  0  0  0  0  0  0  0  0  0  0
  1  6  2  0
  2  3  2  0
  2  1  1  0
  3  4  1  0
  4  5  2  0
  5  7  1  0
  6  5  1  0
  7 12  1  0
  7  8  1  0
  8  9  1  0
  9 10  1  0
 11 10  1  0
 12 11  1  0
 13 12  1  0
 13 14  1  0
 15 14  2  0
 15 16  1  0
 17 16  1  0
 18 17  1  0
 19 18  1  0
 20 19  1  0
 20 21  1  0
 21 17  1  0
  1 22  1  0
  2 23  1  0
  3 24  1  0
  8 25  1  0
  8 26  1  0
  9 27  1  0
  9 28  1  0
 10 29  1  0
 11 30  1  0
 11 31  1  0
 12 32  1  1
 13 33  1  0
 13 34  1  0
 14 35  1  0
 15 36  1  0
 16 37  1  0
 16 38  1  0
 18 39  1  0
 18 40  1  0
 19 41  1  0
 19 42  1  0
 20 43  1  0
 20 44  1  0
 21 45  1  0
 21 46  1  0
M  ISO  8  22  14  23  14  24  14  25  13  26  13  27  13  28  13  29   5
M  ISO  8  30  13  31  13  32  13  33   8  34   8  37   8  38   8  39  13
M  ISO  7  40  13  41  13  42  13  43  13  44  13  45  13  46  13
M  END
>  <minimizedAffinity>  (1) 
-5.42954302

>  <minimizedRMSD>  (1) 
0.415684819

$$$$
