
     RDKit          3D

 17 17  0  0  0  0  0  0  0  0999 V2000
   47.5900   34.9490   42.3290 C   0  0  0  0  0  0  0  0  0  0  0  0
   47.8410   33.9830   43.3140 C   0  0  0  0  0  0  0  0  0  0  0  0
   46.8010   33.6320   44.1970 C   0  0  0  0  0  0  0  0  0  0  0  0
   45.6120   34.2620   44.0290 N   0  0  0  0  0  0  0  0  0  0  0  0
   45.3990   35.1840   43.0760 C   0  0  0  0  0  0  0  0  0  0  0  0
   46.3750   35.5260   42.2330 N   0  0  0  0  0  0  0  0  0  0  0  0
   43.6040   35.6300   41.6150 C   0  0  0  0  0  0  0  0  0  0  0  0
   44.0520   34.9380   40.6380 O   0  0  0  0  0  0  0  0  0  0  0  0
   44.1550   35.8510   42.8920 N   0  0  0  0  0  0  0  0  0  0  0  0
   48.7230   35.2910   41.4120 C   0  0  0  0  0  0  0  0  0  0  0  0
   48.3490   35.2020   40.0920 F   0  0  0  0  0  0  0  0  0  0  0  0
   49.1690   36.5640   41.7350 F   0  0  0  0  0  0  0  0  0  0  0  0
   49.7960   34.4260   41.6720 F   0  0  0  0  0  0  0  0  0  0  0  0
   48.8302   33.5088   43.3955 H   0  0  0  0  0  0  0  0  0  0  0  0
   46.9468   32.8807   44.9872 H   0  0  0  0  0  0  0  0  0  0  0  0
   42.6413   36.1289   41.4300 H   0  0  0  0  0  0  0  0  0  0  0  0
   43.7065   36.4322   43.6145 H   0  0  0  0  0  0  0  0  0  0  0  0
  1  2  2  0
  2  3  1  0
  4  3  2  0
  5  4  1  0
  6  1  1  0
  6  5  2  0
  7  9  1  0
  8  7  2  0
  9  5  1  0
 10 13  1  0
 10 12  1  0
 10  1  1  0
 11 10  1  0
  2 14  1  0
  3 15  1  0
  7 16  1  0
  9 17  1  0
M  ISO  3  14  14  15  14  16   6
M  END
>  <minimizedAffinity>  (1) 
-4.90272427

>  <minimizedRMSD>  (1) 
0.175224662

$$$$
