
     RDKit          3D

 53 56  0  0  1  0  0  0  0  0999 V2000
   45.3140   30.1690   47.1980 C   0  0  0  0  0  0  0  0  0  0  0  0
   45.0180   34.7690   44.9470 C   0  0  0  0  0  0  0  0  0  0  0  0
   45.8690   34.5700   43.8240 C   0  0  0  0  0  0  0  0  0  0  0  0
   46.8870   33.6200   43.9150 C   0  0  0  0  0  0  0  0  0  0  0  0
   47.0090   32.9330   45.0810 N   0  0  0  0  0  0  0  0  0  0  0  0
   46.2140   33.1180   46.1290 C   0  0  0  0  0  0  0  0  0  0  0  0
   45.2330   34.0380   46.0310 N   0  0  0  0  0  0  0  0  0  0  0  0
   46.4090   32.3720   47.2810 N   0  0  0  0  0  0  0  0  0  0  0  0
   47.6830   32.4100   47.9680 C   0  0  0  0  0  0  0  0  0  0  0  0
   47.8730   31.2880   48.9290 C   0  0  0  0  0  0  0  0  0  0  0  0
   46.7180   30.7780   49.5820 N   0  0  0  0  0  0  0  0  0  0  0  0
   45.5300   31.5290   49.2880 C   0  0  0  0  0  0  0  0  0  0  0  0
   45.3070   31.5390   47.8050 C   0  0  2  0  0  0  0  0  0  0  0  0
   44.9050   29.2070   48.2740 C   0  0  0  0  0  0  0  0  0  0  0  0
   44.9690   27.8930   48.0860 C   0  0  0  0  0  0  0  0  0  0  0  0
   44.5960   26.8520   49.0730 C   0  0  0  0  0  0  0  0  0  0  0  0
   43.9180   25.6980   48.3430 C   0  0  2  0  0  0  0  0  0  0  0  0
   44.8240   24.6280   47.7790 C   0  0  0  0  0  0  0  0  0  0  0  0
   44.0670   25.5710   46.8860 C   0  0  1  0  0  0  0  0  0  0  0  0
   42.6310   24.3720   45.0400 C   0  0  0  0  0  0  0  0  0  0  0  0
   42.8570   25.1570   46.1500 C   0  0  0  0  0  0  0  0  0  0  0  0
   41.7390   25.7320   46.7700 C   0  0  0  0  0  0  0  0  0  0  0  0
   40.4400   25.5250   46.2900 C   0  0  0  0  0  0  0  0  0  0  0  0
   40.2570   24.7210   45.1600 C   0  0  0  0  0  0  0  0  0  0  0  0
   41.3730   24.1680   44.5700 C   0  0  0  0  0  0  0  0  0  0  0  0
   43.8150   23.8690   44.5280 O   0  0  0  0  0  0  0  0  0  0  0  0
   41.3110   23.3500   43.4390 O   0  0  0  0  0  0  0  0  0  0  0  0
   44.6018   30.1237   46.3609 H   0  0  0  0  0  0  0  0  0  0  0  0
   46.3117   29.9189   46.8082 H   0  0  0  0  0  0  0  0  0  0  0  0
   44.2046   35.5089   44.9160 H   0  0  0  0  0  0  0  0  0  0  0  0
   45.7271   35.1535   42.9024 H   0  0  0  0  0  0  0  0  0  0  0  0
   47.5678   33.4335   43.0713 H   0  0  0  0  0  0  0  0  0  0  0  0
   48.4852   32.3647   47.2168 H   0  0  0  0  0  0  0  0  0  0  0  0
   47.7091   33.3429   48.5502 H   0  0  0  0  0  0  0  0  0  0  0  0
   48.3330   30.4556   48.3763 H   0  0  0  0  0  0  0  0  0  0  0  0
   48.4859   31.7134   49.7373 H   0  0  0  0  0  0  0  0  0  0  0  0
   46.5736   29.8038   49.2803 H   0  0  0  0  0  0  0  0  0  0  0  0
   44.6673   31.0629   49.7866 H   0  0  0  0  0  0  0  0  0  0  0  0
   45.6459   32.5608   49.6511 H   0  0  0  0  0  0  0  0  0  0  0  0
   44.3122   31.9341   47.5515 H   0  0  0  0  0  0  0  0  0  0  0  0
   44.5450   29.5969   49.2375 H   0  0  0  0  0  0  0  0  0  0  0  0
   45.3324   27.5458   47.1075 H   0  0  0  0  0  0  0  0  0  0  0  0
   45.4995   26.4862   49.5828 H   0  0  0  0  0  0  0  0  0  0  0  0
   43.9079   27.2760   49.8191 H   0  0  0  0  0  0  0  0  0  0  0  0
   43.0480   25.7265   49.0155 H   0  0  0  0  0  0  0  0  0  0  0  0
   45.9158   24.7162   47.8799 H   0  0  0  0  0  0  0  0  0  0  0  0
   44.9093   23.5358   47.8786 H   0  0  0  0  0  0  0  0  0  0  0  0
   44.3896   26.2053   46.0472 H   0  0  0  0  0  0  0  0  0  0  0  0
   41.8863   26.3635   47.6585 H   0  0  0  0  0  0  0  0  0  0  0  0
   39.5778   25.9869   46.7931 H   0  0  0  0  0  0  0  0  0  0  0  0
   39.2516   24.5355   44.7541 H   0  0  0  0  0  0  0  0  0  0  0  0
   43.8003   23.2867   43.7275 H   0  0  0  0  0  0  0  0  0  0  0  0
   40.4359   23.1441   43.0244 H   0  0  0  0  0  0  0  0  0  0  0  0
  1 13  1  0
  1 14  1  0
  2  7  2  0
  3  4  2  0
  3  2  1  0
  4  5  1  0
  5  6  2  0
  6  8  1  0
  7  6  1  0
  8 13  1  0
  8  9  1  0
  9 10  1  0
 10 11  1  0
 12 11  1  0
 13 12  1  0
 15 14  2  0
 15 16  1  0
 17 16  1  0
 18 17  1  0
 19 18  1  0
 19 17  1  0
 20 21  2  0
 21 22  1  0
 21 19  1  0
 23 22  2  0
 24 23  1  0
 25 20  1  0
 25 24  2  0
 26 20  1  0
 27 25  1  0
  1 28  1  0
  1 29  1  0
  2 30  1  0
  3 31  1  0
  4 32  1  0
  9 33  1  0
  9 34  1  0
 10 35  1  0
 10 36  1  0
 11 37  1  0
 12 38  1  0
 12 39  1  0
 13 40  1  1
 14 41  1  0
 15 42  1  0
 16 43  1  0
 16 44  1  0
 17 45  1  6
 18 46  1  0
 18 47  1  0
 19 48  1  6
 22 49  1  0
 23 50  1  0
 24 51  1  0
 26 52  1  0
 27 53  1  0
M  ISO  8  28   8  29   8  30  14  31  14  32  14  33  13  34  13  35  13
M  ISO  8  36  13  37   5  38  13  39  13  40  13  43   8  44   8  45  13
M  ISO  8  46  13  47  13  48  13  49  14  50  14  51  14  52   3  53   3
M  END
>  <minimizedAffinity>  (1) 
-6.33743143

>  <minimizedRMSD>  (1) 
1.31503153

$$$$
