
     RDKit          3D

 25 26  0  0  0  0  0  0  0  0999 V2000
   47.3840   34.7880   41.9480 C   0  0  0  0  0  0  0  0  0  0  0  0
   47.4520   34.3440   43.2740 C   0  0  0  0  0  0  0  0  0  0  0  0
   46.2440   33.9910   43.9180 C   0  0  0  0  0  0  0  0  0  0  0  0
   45.0940   34.1060   43.2070 N   0  0  0  0  0  0  0  0  0  0  0  0
   45.0740   34.5400   41.9310 C   0  0  0  0  0  0  0  0  0  0  0  0
   46.2100   34.8770   41.3100 N   0  0  0  0  0  0  0  0  0  0  0  0
   43.8560   34.6390   41.2460 N   0  0  0  0  0  0  0  0  0  0  0  0
   43.6260   34.1780   39.8740 C   0  0  0  0  0  0  0  0  0  0  0  0
   42.1460   34.1550   39.6880 C   0  0  0  0  0  0  0  0  0  0  0  0
   41.6230   34.2170   41.1110 C   0  0  0  0  0  0  0  0  0  0  0  0
   42.6040   35.1960   41.7220 C   0  0  0  0  0  0  0  0  0  0  0  0
   48.6890   35.1530   41.2960 C   0  0  0  0  0  0  0  0  0  0  0  0
   49.6750   34.2310   41.5670 F   0  0  0  0  0  0  0  0  0  0  0  0
   48.4580   35.2730   39.9310 F   0  0  0  0  0  0  0  0  0  0  0  0
   49.0770   36.4310   41.7350 F   0  0  0  0  0  0  0  0  0  0  0  0
   48.4161   34.2720   43.7988 H   0  0  0  0  0  0  0  0  0  0  0  0
   46.2366   33.6356   44.9590 H   0  0  0  0  0  0  0  0  0  0  0  0
   44.0903   34.8699   39.1559 H   0  0  0  0  0  0  0  0  0  0  0  0
   44.0679   33.1851   39.7043 H   0  0  0  0  0  0  0  0  0  0  0  0
   41.8073   35.0234   39.1040 H   0  0  0  0  0  0  0  0  0  0  0  0
   41.7921   33.2732   39.1338 H   0  0  0  0  0  0  0  0  0  0  0  0
   40.5918   34.5982   41.1486 H   0  0  0  0  0  0  0  0  0  0  0  0
   41.5669   33.2445   41.6220 H   0  0  0  0  0  0  0  0  0  0  0  0
   42.5495   35.1947   42.8206 H   0  0  0  0  0  0  0  0  0  0  0  0
   42.4348   36.2482   41.4494 H   0  0  0  0  0  0  0  0  0  0  0  0
  1  2  2  0
  2  3  1  0
  4  3  2  0
  5  4  1  0
  6  5  2  0
  6  1  1  0
  7 11  1  0
  7  5  1  0
  8  7  1  0
  9  8  1  0
  9 10  1  0
 10 11  1  0
 12 13  1  0
 12 15  1  0
 12  1  1  0
 14 12  1  0
  2 16  1  0
  3 17  1  0
  8 18  1  0
  8 19  1  0
  9 20  1  0
  9 21  1  0
 10 22  1  0
 10 23  1  0
 11 24  1  0
 11 25  1  0
M  ISO  8  16  14  17  14  18  13  19  13  20  13  21  13  22  13  23  13
M  ISO  2  24  13  25  13
M  END
>  <minimizedAffinity>  (1) 
-4.87891006

>  <minimizedRMSD>  (1) 
2.11916804

$$$$
