
     RDKit          3D

 44 46  0  0  1  0  0  0  0  0999 V2000
   44.9940   34.6980   45.0090 C   0  0  0  0  0  0  0  0  0  0  0  0
   45.8720   34.5780   43.8970 C   0  0  0  0  0  0  0  0  0  0  0  0
   46.9220   33.6710   43.9780 C   0  0  0  0  0  0  0  0  0  0  0  0
   47.0420   32.9570   45.1200 N   0  0  0  0  0  0  0  0  0  0  0  0
   46.2280   33.0640   46.1620 C   0  0  0  0  0  0  0  0  0  0  0  0
   45.2270   33.9350   46.0690 N   0  0  0  0  0  0  0  0  0  0  0  0
   46.4380   32.2830   47.2900 N   0  0  0  0  0  0  0  0  0  0  0  0
   47.6970   32.3500   48.0020 C   0  0  0  0  0  0  0  0  0  0  0  0
   47.9240   31.1990   48.9340 C   0  0  0  0  0  0  0  0  0  0  0  0
   46.7740   30.6300   49.5400 N   0  0  0  0  0  0  0  0  0  0  0  0
   45.5590   31.3330   49.2360 C   0  0  0  0  0  0  0  0  0  0  0  0
   45.3640   31.3820   47.7580 C   0  0  2  0  0  0  0  0  0  0  0  0
   45.4850   30.0240   47.1110 C   0  0  0  0  0  0  0  0  0  0  0  0
   44.9380   29.0370   48.1060 C   0  0  0  0  0  0  0  0  0  0  0  0
   44.9640   27.7320   47.8480 C   0  0  0  0  0  0  0  0  0  0  0  0
   44.4510   26.6790   48.7650 C   0  0  0  0  0  0  0  0  0  0  0  0
   43.3540   25.9080   48.0550 C   0  0  2  0  0  0  0  0  0  0  0  0
   43.7510   24.9960   46.9380 C   0  0  0  0  0  0  0  0  0  0  0  0
   42.9750   26.2610   46.6780 C   0  0  1  0  0  0  0  0  0  0  0  0
   41.5280   26.1750   46.2710 C   0  0  0  0  0  0  0  0  0  0  0  0
   44.1483   35.4012   44.9909 H   0  0  0  0  0  0  0  0  0  0  0  0
   45.7237   35.1885   42.9941 H   0  0  0  0  0  0  0  0  0  0  0  0
   47.6283   33.5391   43.1451 H   0  0  0  0  0  0  0  0  0  0  0  0
   48.5128   32.3655   47.2642 H   0  0  0  0  0  0  0  0  0  0  0  0
   47.6701   33.2614   48.6174 H   0  0  0  0  0  0  0  0  0  0  0  0
   48.4278   30.4041   48.3646 H   0  0  0  0  0  0  0  0  0  0  0  0
   48.5122   31.6139   49.7658 H   0  0  0  0  0  0  0  0  0  0  0  0
   46.6794   29.6584   49.2115 H   0  0  0  0  0  0  0  0  0  0  0  0
   44.7088   30.8117   49.7001 H   0  0  0  0  0  0  0  0  0  0  0  0
   45.6226   32.3582   49.6297 H   0  0  0  0  0  0  0  0  0  0  0  0
   44.3545   31.7299   47.4937 H   0  0  0  0  0  0  0  0  0  0  0  0
   44.9001   29.9913   46.1800 H   0  0  0  0  0  0  0  0  0  0  0  0
   46.5288   29.7949   46.8502 H   0  0  0  0  0  0  0  0  0  0  0  0
   44.5131   29.3972   49.0545 H   0  0  0  0  0  0  0  0  0  0  0  0
   45.3952   27.4090   46.8890 H   0  0  0  0  0  0  0  0  0  0  0  0
   45.2682   25.9946   49.0367 H   0  0  0  0  0  0  0  0  0  0  0  0
   44.0524   27.1408   49.6803 H   0  0  0  0  0  0  0  0  0  0  0  0
   42.7896   25.8012   48.9931 H   0  0  0  0  0  0  0  0  0  0  0  0
   44.8052   24.9206   46.6329 H   0  0  0  0  0  0  0  0  0  0  0  0
   43.6136   23.9290   46.7086 H   0  0  0  0  0  0  0  0  0  0  0  0
   43.1205   27.1385   46.0309 H   0  0  0  0  0  0  0  0  0  0  0  0
   40.8958   26.1374   47.1704 H   0  0  0  0  0  0  0  0  0  0  0  0
   41.2622   27.0589   45.6726 H   0  0  0  0  0  0  0  0  0  0  0  0
   41.3688   25.2658   45.6726 H   0  0  0  0  0  0  0  0  0  0  0  0
  1  6  2  0
  2  3  2  0
  2  1  1  0
  3  4  1  0
  4  5  2  0
  5  7  1  0
  6  5  1  0
  7 12  1  0
  7  8  1  0
  8  9  1  0
  9 10  1  0
 11 10  1  0
 12 11  1  0
 13 12  1  0
 13 14  1  0
 15 14  2  0
 15 16  1  0
 17 16  1  0
 18 17  1  0
 19 18  1  0
 19 17  1  0
 20 19  1  0
  1 21  1  0
  2 22  1  0
  3 23  1  0
  8 24  1  0
  8 25  1  0
  9 26  1  0
  9 27  1  0
 10 28  1  0
 11 29  1  0
 11 30  1  0
 12 31  1  1
 13 32  1  0
 13 33  1  0
 14 34  1  0
 15 35  1  0
 16 36  1  0
 16 37  1  0
 17 38  1  1
 18 39  1  0
 18 40  1  0
 19 41  1  6
 20 42  1  0
 20 43  1  0
 20 44  1  0
M  ISO  8  21  14  22  14  23  14  24  13  25  13  26  13  27  13  28   5
M  ISO  8  29  13  30  13  31  13  32   8  33   8  36   8  37   8  38  13
M  ISO  6  39  13  40  13  41  13  42   8  43   8  44   8
M  END
>  <minimizedAffinity>  (1) 
-5.79537821

>  <minimizedRMSD>  (1) 
0.096925877

$$$$
