
     RDKit          3D

 27 28  0  0  0  0  0  0  0  0999 V2000
   46.0880   34.7370   41.5000 C   0  0  0  0  0  0  0  0  0  0  0  0
   46.1650   35.1310   42.8430 C   0  0  0  0  0  0  0  0  0  0  0  0
   44.9870   35.4730   43.5090 C   0  0  0  0  0  0  0  0  0  0  0  0
   43.8210   35.4050   42.8120 N   0  0  0  0  0  0  0  0  0  0  0  0
   43.7650   35.0230   41.5140 C   0  0  0  0  0  0  0  0  0  0  0  0
   44.8980   34.6940   40.8750 N   0  0  0  0  0  0  0  0  0  0  0  0
   42.4820   34.9810   40.8620 N   0  0  0  0  0  0  0  0  0  0  0  0
   42.4210   34.2610   39.6090 C   0  0  0  0  0  0  0  0  0  0  0  0
   41.0300   33.8710   39.2180 C   0  0  0  0  0  0  0  0  0  0  0  0
   40.0430   34.1700   40.2250 N   0  0  0  0  0  0  0  0  0  0  0  0
   40.1750   35.5560   40.6130 C   0  0  0  0  0  0  0  0  0  0  0  0
   41.3860   35.6530   41.5050 C   0  0  0  0  0  0  0  0  0  0  0  0
   47.3700   34.3790   40.8200 C   0  0  0  0  0  0  0  0  0  0  0  0
   47.1740   34.0860   39.4840 F   0  0  0  0  0  0  0  0  0  0  0  0
   48.2550   35.4260   40.9960 F   0  0  0  0  0  0  0  0  0  0  0  0
   47.9450   33.2780   41.4780 F   0  0  0  0  0  0  0  0  0  0  0  0
   47.1343   35.1699   43.3616 H   0  0  0  0  0  0  0  0  0  0  0  0
   45.0012   35.7872   44.5631 H   0  0  0  0  0  0  0  0  0  0  0  0
   42.8398   34.9005   38.8180 H   0  0  0  0  0  0  0  0  0  0  0  0
   42.9958   33.3321   39.7384 H   0  0  0  0  0  0  0  0  0  0  0  0
   40.7629   34.4113   38.2978 H   0  0  0  0  0  0  0  0  0  0  0  0
   41.0279   32.7800   39.0777 H   0  0  0  0  0  0  0  0  0  0  0  0
   39.1001   34.0058   39.8444 H   0  0  0  0  0  0  0  0  0  0  0  0
   40.3115   36.1860   39.7217 H   0  0  0  0  0  0  0  0  0  0  0  0
   39.2730   35.9032   41.1382 H   0  0  0  0  0  0  0  0  0  0  0  0
   41.1735   35.1743   42.4723 H   0  0  0  0  0  0  0  0  0  0  0  0
   41.6416   36.7086   41.6794 H   0  0  0  0  0  0  0  0  0  0  0  0
  1  2  2  0
  2  3  1  0
  4  3  2  0
  5  4  1  0
  6  1  1  0
  6  5  2  0
  7 12  1  0
  7  5  1  0
  8  7  1  0
  9  8  1  0
  9 10  1  0
 10 11  1  0
 11 12  1  0
 13 15  1  0
 13 16  1  0
 13  1  1  0
 14 13  1  0
  2 17  1  0
  3 18  1  0
  8 19  1  0
  8 20  1  0
  9 21  1  0
  9 22  1  0
 10 23  1  0
 11 24  1  0
 11 25  1  0
 12 26  1  0
 12 27  1  0
M  ISO  8  17  14  18  14  19  13  20  13  21  13  22  13  23   5  24  13
M  ISO  3  25  13  26  13  27  13
M  END
>  <minimizedAffinity>  (1) 
-4.86055756

>  <minimizedRMSD>  (1) 
2.88330388

$$$$
