
     RDKit          3D

 24 25  0  0  0  0  0  0  0  0999 V2000
   44.0090   35.2880   41.6480 C   0  0  0  0  0  0  0  0  0  0  0  0
   42.9390   34.8440   41.0350 C   0  0  0  0  0  0  0  0  0  0  0  0
   44.2710   35.8410   44.0730 C   0  0  0  0  0  0  0  0  0  0  0  0
   44.4350   34.9710   42.9950 C   0  0  0  0  0  0  0  0  0  0  0  0
   45.0380   33.7490   43.2500 C   0  0  0  0  0  0  0  0  0  0  0  0
   45.4430   33.4430   44.5240 N   0  0  0  0  0  0  0  0  0  0  0  0
   45.2570   34.3290   45.5370 C   0  0  0  0  0  0  0  0  0  0  0  0
   44.6730   35.5170   45.2940 N   0  0  0  0  0  0  0  0  0  0  0  0
   42.5840   35.2300   39.6380 C   0  0  0  0  0  0  0  0  0  0  0  0
   41.1690   34.8420   39.4390 C   0  0  0  0  0  0  0  0  0  0  0  0
   40.4280   34.7190   38.2630 C   0  0  0  0  0  0  0  0  0  0  0  0
   39.1190   34.3380   38.3430 C   0  0  0  0  0  0  0  0  0  0  0  0
   38.5790   34.0850   39.6520 C   0  0  0  0  0  0  0  0  0  0  0  0
   40.0800   34.4320   40.7440 S   0  0  0  0  0  0  0  0  0  0  0  0
   44.6521   35.9749   41.0782 H   0  0  0  0  0  0  0  0  0  0  0  0
   42.2723   34.1555   41.5749 H   0  0  0  0  0  0  0  0  0  0  0  0
   43.7967   36.8193   43.9059 H   0  0  0  0  0  0  0  0  0  0  0  0
   45.1910   33.0277   42.4337 H   0  0  0  0  0  0  0  0  0  0  0  0
   45.5838   34.0753   46.5562 H   0  0  0  0  0  0  0  0  0  0  0  0
   42.7028   36.3151   39.5021 H   0  0  0  0  0  0  0  0  0  0  0  0
   43.2389   34.7298   38.9094 H   0  0  0  0  0  0  0  0  0  0  0  0
   40.8910   34.9257   37.2868 H   0  0  0  0  0  0  0  0  0  0  0  0
   38.5005   34.2286   37.4399 H   0  0  0  0  0  0  0  0  0  0  0  0
   37.5641   33.7731   39.9397 H   0  0  0  0  0  0  0  0  0  0  0  0
  1  4  1  0
  2  1  2  0
  3  8  2  0
  4  5  2  0
  4  3  1  0
  5  6  1  0
  6  7  2  0
  8  7  1  0
  9  2  1  0
 10  9  1  0
 10 14  1  0
 11 12  1  0
 11 10  2  0
 12 13  2  0
 13 14  1  0
  1 15  1  0
  2 16  1  0
  3 17  1  0
  5 18  1  0
  7 19  1  0
  9 20  1  0
  9 21  1  0
 11 22  1  0
 12 23  1  0
 13 24  1  0
M  ISO  8  17  14  18  14  19  14  20   8  21   8  22  14  23  14  24  14
M  END
>  <minimizedAffinity>  (1) 
-4.60306978

>  <minimizedRMSD>  (1) 
2.25769973

$$$$
