
     RDKit          3D

 18 18  0  0  0  0  0  0  0  0999 V2000
   44.2860   35.8090   43.9680 C   0  0  0  0  0  0  0  0  0  0  0  0
   44.3840   34.9130   42.9070 C   0  0  0  0  0  0  0  0  0  0  0  0
   44.9680   33.6790   43.1540 C   0  0  0  0  0  0  0  0  0  0  0  0
   45.4210   33.3830   44.4030 N   0  0  0  0  0  0  0  0  0  0  0  0
   45.3070   34.2860   45.4150 C   0  0  0  0  0  0  0  0  0  0  0  0
   44.7460   35.4750   45.1850 N   0  0  0  0  0  0  0  0  0  0  0  0
   43.9060   35.2180   41.5740 C   0  0  0  0  0  0  0  0  0  0  0  0
   42.7750   34.7870   41.0210 C   0  0  0  0  0  0  0  0  0  0  0  0
   42.4120   35.1910   39.6230 C   0  0  0  0  0  0  0  0  0  0  0  0
   43.4420   34.7420   38.7670 O   0  0  0  0  0  0  0  0  0  0  0  0
   43.8289   36.7968   43.8087 H   0  0  0  0  0  0  0  0  0  0  0  0
   45.0647   32.9421   42.3430 H   0  0  0  0  0  0  0  0  0  0  0  0
   45.6765   34.0363   46.4205 H   0  0  0  0  0  0  0  0  0  0  0  0
   44.5413   35.8709   40.9575 H   0  0  0  0  0  0  0  0  0  0  0  0
   42.1024   34.1306   41.5926 H   0  0  0  0  0  0  0  0  0  0  0  0
   41.4566   34.7281   39.3350 H   0  0  0  0  0  0  0  0  0  0  0  0
   42.3007   36.2831   39.5533 H   0  0  0  0  0  0  0  0  0  0  0  0
   44.2011   34.4111   39.3095 H   0  0  0  0  0  0  0  0  0  0  0  0
  1  6  2  0
  2  3  2  0
  2  1  1  0
  3  4  1  0
  4  5  2  0
  6  5  1  0
  7  2  1  0
  8  7  2  0
  9  8  1  0
 10  9  1  0
  1 11  1  0
  3 12  1  0
  5 13  1  0
  7 14  1  0
  8 15  1  0
  9 16  1  0
  9 17  1  0
 10 18  1  0
M  ISO  6  11  14  12  14  13  14  16   8  17   8  18   3
M  END
>  <minimizedAffinity>  (1) 
-3.28382683

>  <minimizedRMSD>  (1) 
0.540087342

$$$$
