
     RDKit          3D

 33 34  0  0  0  0  0  0  0  0999 V2000
   43.3940   35.5440   41.6760 C   0  0  0  0  0  0  0  0  0  0  0  0
   42.4920   34.9390   40.9440 C   0  0  0  0  0  0  0  0  0  0  0  0
   44.4920   35.6060   43.9080 C   0  0  0  0  0  0  0  0  0  0  0  0
   44.1730   34.9340   42.7210 C   0  0  0  0  0  0  0  0  0  0  0  0
   44.6400   33.6360   42.5750 C   0  0  0  0  0  0  0  0  0  0  0  0
   45.3820   33.0770   43.5880 N   0  0  0  0  0  0  0  0  0  0  0  0
   45.6660   33.7620   44.7170 C   0  0  0  0  0  0  0  0  0  0  0  0
   45.2270   35.0120   44.8770 N   0  0  0  0  0  0  0  0  0  0  0  0
   46.4200   33.1730   45.7290 O   0  0  0  0  0  0  0  0  0  0  0  0
   46.7410   32.4870   48.2220 O   0  0  0  0  0  0  0  0  0  0  0  0
   45.6800   32.6290   47.1700 P   0  0  0  0  0  0  0  0  0  0  0  0
   44.9660   31.1240   46.8850 O   0  0  0  0  0  0  0  0  0  0  0  0
   44.5340   33.7590   47.6570 O   0  0  0  0  0  0  0  0  0  0  0  0
   41.7130   35.6380   39.8660 C   0  0  0  0  0  0  0  0  0  0  0  0
   40.4970   34.8620   39.4960 C   0  0  0  0  0  0  0  0  0  0  0  0
   40.1830   34.7130   38.1540 C   0  0  0  0  0  0  0  0  0  0  0  0
   39.0530   33.9910   37.8200 C   0  0  0  0  0  0  0  0  0  0  0  0
   38.2140   33.4070   38.7780 C   0  0  0  0  0  0  0  0  0  0  0  0
   38.5450   33.5680   40.1110 C   0  0  0  0  0  0  0  0  0  0  0  0
   39.6750   34.2880   40.4480 C   0  0  0  0  0  0  0  0  0  0  0  0
   43.5715   36.6107   41.4746 H   0  0  0  0  0  0  0  0  0  0  0  0
   42.2961   33.8721   41.1265 H   0  0  0  0  0  0  0  0  0  0  0  0
   44.1381   36.6370   44.0555 H   0  0  0  0  0  0  0  0  0  0  0  0
   44.4198   33.0628   41.6624 H   0  0  0  0  0  0  0  0  0  0  0  0
   44.7591   30.6879   47.7494 H   0  0  0  0  0  0  0  0  0  0  0  0
   44.5016   33.7910   48.6460 H   0  0  0  0  0  0  0  0  0  0  0  0
   41.4092   36.6311   40.2285 H   0  0  0  0  0  0  0  0  0  0  0  0
   42.3529   35.7310   38.9762 H   0  0  0  0  0  0  0  0  0  0  0  0
   40.8178   35.1586   37.3740 H   0  0  0  0  0  0  0  0  0  0  0  0
   38.8014   33.8696   36.7561 H   0  0  0  0  0  0  0  0  0  0  0  0
   37.3207   32.8387   38.4795 H   0  0  0  0  0  0  0  0  0  0  0  0
   37.9139   33.1265   40.8964 H   0  0  0  0  0  0  0  0  0  0  0  0
   39.9297   34.4088   41.5113 H   0  0  0  0  0  0  0  0  0  0  0  0
  1  4  1  0
  2  1  2  0
  3  8  2  0
  4  3  1  0
  5  4  2  0
  5  6  1  0
  6  7  2  0
  7  8  1  0
  7  9  1  0
  9 11  1  0
 11 13  1  0
 11 10  2  0
 12 11  1  0
 14  2  1  0
 15 14  1  0
 15 20  1  0
 16 15  2  0
 17 16  1  0
 17 18  2  0
 18 19  1  0
 19 20  2  0
  1 21  1  0
  2 22  1  0
  3 23  1  0
  5 24  1  0
 12 25  1  0
 13 26  1  0
 14 27  1  0
 14 28  1  0
 16 29  1  0
 17 30  1  0
 18 31  1  0
 19 32  1  0
 20 33  1  0
M  ISO  8  23  14  24  14  25   3  26   3  27   8  28   8  29  14  30  14
M  ISO  3  31  14  32  14  33  14
M  END
>  <minimizedAffinity>  (1) 
-6.3920598

>  <minimizedRMSD>  (1) 
0.904947817

$$$$
