
     RDKit          3D

 40 42  0  0  0  0  0  0  0  0999 V2000
   44.6120   35.5560   43.3750 C   0  0  0  0  0  0  0  0  0  0  0  0
   44.0630   34.7990   42.3480 C   0  0  0  0  0  0  0  0  0  0  0  0
   44.1810   33.4330   42.4370 C   0  0  0  0  0  0  0  0  0  0  0  0
   44.8180   32.8750   43.5030 N   0  0  0  0  0  0  0  0  0  0  0  0
   45.3460   33.6270   44.4920 C   0  0  0  0  0  0  0  0  0  0  0  0
   45.2300   34.9530   44.4040 N   0  0  0  0  0  0  0  0  0  0  0  0
   47.0830   32.0950   45.3830 C   0  0  0  0  0  0  0  0  0  0  0  0
   46.0080   32.9330   45.5910 C   0  0  0  0  0  0  0  0  0  0  0  0
   45.5260   33.1380   46.8660 C   0  0  0  0  0  0  0  0  0  0  0  0
   46.1200   32.5020   47.9500 C   0  0  0  0  0  0  0  0  0  0  0  0
   47.1950   31.6590   47.7760 C   0  0  0  0  0  0  0  0  0  0  0  0
   47.6440   31.4820   46.4850 C   0  0  0  0  0  0  0  0  0  0  0  0
   47.7080   31.8210   43.7870 S   0  0  0  0  0  0  0  0  0  0  0  0
   48.6480   30.6480   43.7850 O   0  0  0  0  0  0  0  0  0  0  0  0
   48.4390   33.0610   43.3380 O   0  0  0  0  0  0  0  0  0  0  0  0
   43.3860   35.3870   41.2130 C   0  0  0  0  0  0  0  0  0  0  0  0
   42.1880   35.0550   40.7720 C   0  0  0  0  0  0  0  0  0  0  0  0
   41.5440   35.7060   39.5870 C   0  0  0  0  0  0  0  0  0  0  0  0
   40.3310   34.9630   39.1660 C   0  0  0  0  0  0  0  0  0  0  0  0
   40.1000   34.7610   37.8110 C   0  0  0  0  0  0  0  0  0  0  0  0
   38.9660   34.0660   37.4140 C   0  0  0  0  0  0  0  0  0  0  0  0
   38.0440   33.5620   38.3400 C   0  0  0  0  0  0  0  0  0  0  0  0
   38.2820   33.7680   39.7000 C   0  0  0  0  0  0  0  0  0  0  0  0
   39.4140   34.4610   40.0790 C   0  0  0  0  0  0  0  0  0  0  0  0
   44.5405   36.6533   43.3456 H   0  0  0  0  0  0  0  0  0  0  0  0
   43.7615   32.7913   41.6482 H   0  0  0  0  0  0  0  0  0  0  0  0
   44.6680   33.8074   47.0263 H   0  0  0  0  0  0  0  0  0  0  0  0
   45.7254   32.6747   48.9622 H   0  0  0  0  0  0  0  0  0  0  0  0
   47.6726   31.1511   48.6269 H   0  0  0  0  0  0  0  0  0  0  0  0
   48.5011   30.8118   46.3232 H   0  0  0  0  0  0  0  0  0  0  0  0
   46.6739   31.5454   42.9317 H   0  0  0  0  0  0  0  0  0  0  0  0
   43.9176   36.1818   40.6692 H   0  0  0  0  0  0  0  0  0  0  0  0
   41.6362   34.2629   41.2993 H   0  0  0  0  0  0  0  0  0  0  0  0
   41.2614   36.7356   39.8517 H   0  0  0  0  0  0  0  0  0  0  0  0
   42.2620   35.7055   38.7537 H   0  0  0  0  0  0  0  0  0  0  0  0
   40.8071   35.1471   37.0620 H   0  0  0  0  0  0  0  0  0  0  0  0
   38.7862   33.9064   36.3406 H   0  0  0  0  0  0  0  0  0  0  0  0
   37.1511   33.0153   38.0027 H   0  0  0  0  0  0  0  0  0  0  0  0
   37.5804   33.3851   40.4557 H   0  0  0  0  0  0  0  0  0  0  0  0
   39.5974   34.6225   41.1515 H   0  0  0  0  0  0  0  0  0  0  0  0
  1  6  2  0
  2  3  2  0
  2  1  1  0
  3  4  1  0
  4  5  2  0
  5  8  1  0
  6  5  1  0
  7  8  2  0
  7 12  1  0
  8  9  1  0
  9 10  2  0
 11 10  1  0
 12 11  2  0
 13  7  1  0
 14 13  2  0
 15 13  2  0
 16  2  1  0
 17 16  2  0
 18 17  1  0
 19 18  1  0
 19 24  1  0
 20 19  2  0
 21 20  1  0
 21 22  2  0
 22 23  1  0
 23 24  2  0
  1 25  1  0
  3 26  1  0
  9 27  1  0
 10 28  1  0
 11 29  1  0
 12 30  1  0
 13 31  1  0
 16 32  1  0
 17 33  1  0
 18 34  1  0
 18 35  1  0
 20 36  1  0
 21 37  1  0
 22 38  1  0
 23 39  1  0
 24 40  1  0
M  ISO  8  25  14  26  14  27  14  28  14  29  14  30  14  31  11  34   8
M  ISO  6  35   8  36  14  37  14  38  14  39  14  40  14
M  END
>  <minimizedAffinity>  (1) 
-6.20282555

>  <minimizedRMSD>  (1) 
1.22918415

$$$$
