
     RDKit          3D

 30 31  0  0  0  0  0  0  0  0999 V2000
   42.3960   35.5670   39.8080 C   0  0  0  0  0  0  0  0  0  0  0  0
   41.0570   35.0470   39.4140 C   0  0  0  0  0  0  0  0  0  0  0  0
   40.7780   34.9340   38.0550 C   0  0  0  0  0  0  0  0  0  0  0  0
   39.5260   34.4480   37.6760 C   0  0  0  0  0  0  0  0  0  0  0  0
   38.5680   34.0830   38.6090 C   0  0  0  0  0  0  0  0  0  0  0  0
   38.8620   34.2030   39.9620 C   0  0  0  0  0  0  0  0  0  0  0  0
   40.0990   34.6820   40.3440 C   0  0  0  0  0  0  0  0  0  0  0  0
   43.9580   35.2850   41.7180 C   0  0  0  0  0  0  0  0  0  0  0  0
   42.8700   34.9390   41.0760 C   0  0  0  0  0  0  0  0  0  0  0  0
   44.5030   35.4400   44.1180 C   0  0  0  0  0  0  0  0  0  0  0  0
   44.4580   34.7070   42.9480 C   0  0  0  0  0  0  0  0  0  0  0  0
   44.9000   33.4070   42.9680 C   0  0  0  0  0  0  0  0  0  0  0  0
   45.3670   32.8780   44.1310 N   0  0  0  0  0  0  0  0  0  0  0  0
   45.4060   33.6140   45.2850 C   0  0  0  0  0  0  0  0  0  0  0  0
   44.9710   34.8970   45.2680 N   0  0  0  0  0  0  0  0  0  0  0  0
   45.9240   33.0120   46.5510 C   0  0  0  0  0  0  0  0  0  0  0  0
   45.0920   33.3220   47.5940 F   0  0  0  0  0  0  0  0  0  0  0  0
   45.8770   31.6150   46.4300 F   0  0  0  0  0  0  0  0  0  0  0  0
   47.2420   33.3180   46.7670 F   0  0  0  0  0  0  0  0  0  0  0  0
   42.3299   36.6558   39.9503 H   0  0  0  0  0  0  0  0  0  0  0  0
   43.1123   35.3215   39.0101 H   0  0  0  0  0  0  0  0  0  0  0  0
   41.5247   35.2202   37.2997 H   0  0  0  0  0  0  0  0  0  0  0  0
   39.2925   34.3517   36.6054 H   0  0  0  0  0  0  0  0  0  0  0  0
   37.5884   33.7035   38.2829 H   0  0  0  0  0  0  0  0  0  0  0  0
   38.1172   33.9194   40.7202 H   0  0  0  0  0  0  0  0  0  0  0  0
   40.3294   34.7761   41.4155 H   0  0  0  0  0  0  0  0  0  0  0  0
   44.5532   36.0984   41.2775 H   0  0  0  0  0  0  0  0  0  0  0  0
   42.2621   34.1273   41.5021 H   0  0  0  0  0  0  0  0  0  0  0  0
   44.1528   36.4828   44.1162 H   0  0  0  0  0  0  0  0  0  0  0  0
   44.8766   32.7988   42.0517 H   0  0  0  0  0  0  0  0  0  0  0  0
  1  9  1  0
  2  1  1  0
  2  7  1  0
  3  2  2  0
  4  3  1  0
  4  5  2  0
  5  6  1  0
  6  7  2  0
  8 11  1  0
  9  8  2  0
 10 15  2  0
 11 12  2  0
 11 10  1  0
 12 13  1  0
 13 14  2  0
 14 16  1  0
 15 14  1  0
 16 19  1  0
 16 17  1  0
 18 16  1  0
  1 20  1  0
  1 21  1  0
  3 22  1  0
  4 23  1  0
  5 24  1  0
  6 25  1  0
  7 26  1  0
  8 27  1  0
  9 28  1  0
 10 29  1  0
 12 30  1  0
M  ISO  8  20   8  21   8  22  14  23  14  24  14  25  14  26  14  29  14
M  ISO  1  30  14
M  END
>  <minimizedAffinity>  (1) 
-5.82507229

>  <minimizedRMSD>  (1) 
0.706202924

$$$$
