
     RDKit          3D

 29 30  0  0  0  0  0  0  0  0999 V2000
   41.9950   35.4310   39.5470 C   0  0  0  0  0  0  0  0  0  0  0  0
   40.6680   34.8240   39.2670 C   0  0  0  0  0  0  0  0  0  0  0  0
   40.2800   34.6590   37.9330 C   0  0  0  0  0  0  0  0  0  0  0  0
   39.0370   34.0910   37.6700 C   0  0  0  0  0  0  0  0  0  0  0  0
   38.1720   33.6850   38.6910 C   0  0  0  0  0  0  0  0  0  0  0  0
   38.5780   33.8580   40.0060 C   0  0  0  0  0  0  0  0  0  0  0  0
   39.8120   34.4220   40.2750 C   0  0  0  0  0  0  0  0  0  0  0  0
   43.6310   35.4340   41.4090 C   0  0  0  0  0  0  0  0  0  0  0  0
   42.5490   34.9600   40.8480 C   0  0  0  0  0  0  0  0  0  0  0  0
   44.2860   35.8640   43.7700 C   0  0  0  0  0  0  0  0  0  0  0  0
   44.2060   35.0100   42.6710 C   0  0  0  0  0  0  0  0  0  0  0  0
   44.6940   33.7280   42.8040 C   0  0  0  0  0  0  0  0  0  0  0  0
   45.2390   33.3390   44.0080 N   0  0  0  0  0  0  0  0  0  0  0  0
   45.3010   34.1910   45.0530 C   0  0  0  0  0  0  0  0  0  0  0  0
   44.8290   35.4320   44.9240 N   0  0  0  0  0  0  0  0  0  0  0  0
   45.8650   33.7850   46.2950 N   0  0  0  0  0  0  0  0  0  0  0  0
   41.8875   36.5252   39.5797 H   0  0  0  0  0  0  0  0  0  0  0  0
   42.6877   35.1286   38.7478 H   0  0  0  0  0  0  0  0  0  0  0  0
   40.9417   34.9708   37.1115 H   0  0  0  0  0  0  0  0  0  0  0  0
   38.7245   33.9569   36.6239 H   0  0  0  0  0  0  0  0  0  0  0  0
   37.1938   33.2395   38.4571 H   0  0  0  0  0  0  0  0  0  0  0  0
   37.9210   33.5478   40.8319 H   0  0  0  0  0  0  0  0  0  0  0  0
   40.1213   34.5545   41.3223 H   0  0  0  0  0  0  0  0  0  0  0  0
   44.1579   36.2348   40.8694 H   0  0  0  0  0  0  0  0  0  0  0  0
   42.0101   34.1576   41.3730 H   0  0  0  0  0  0  0  0  0  0  0  0
   43.9047   36.8930   43.6943 H   0  0  0  0  0  0  0  0  0  0  0  0
   44.6489   33.0244   41.9597 H   0  0  0  0  0  0  0  0  0  0  0  0
   45.9052   34.4468   47.0832 H   0  0  0  0  0  0  0  0  0  0  0  0
   46.2330   32.8294   46.4056 H   0  0  0  0  0  0  0  0  0  0  0  0
  1  9  1  0
  2  1  1  0
  2  7  1  0
  3  2  2  0
  4  3  1  0
  4  5  2  0
  5  6  1  0
  6  7  2  0
  8 11  1  0
  9  8  2  0
 10 15  2  0
 11 12  2  0
 11 10  1  0
 12 13  1  0
 13 14  2  0
 14 16  1  0
 15 14  1  0
  1 17  1  0
  1 18  1  0
  3 19  1  0
  4 20  1  0
  5 21  1  0
  6 22  1  0
  7 23  1  0
  8 24  1  0
  9 25  1  0
 10 26  1  0
 12 27  1  0
 16 28  1  0
 16 29  1  0
M  ISO  8  17   8  18   8  19  14  20  14  21  14  22  14  23  14  26  14
M  ISO  1  27  14
M  END
>  <minimizedAffinity>  (1) 
-5.80498648

>  <minimizedRMSD>  (1) 
0.0302835684

$$$$
