
     RDKit          3D

 28 29  0  0  0  0  0  0  0  0999 V2000
   41.7820   35.5950   39.5910 C   0  0  0  0  0  0  0  0  0  0  0  0
   40.5140   34.9030   39.2630 C   0  0  0  0  0  0  0  0  0  0  0  0
   40.2030   34.6970   37.9190 C   0  0  0  0  0  0  0  0  0  0  0  0
   39.0290   34.0540   37.5800 C   0  0  0  0  0  0  0  0  0  0  0  0
   38.1390   33.6020   38.5690 C   0  0  0  0  0  0  0  0  0  0  0  0
   38.4510   33.8090   39.9050 C   0  0  0  0  0  0  0  0  0  0  0  0
   39.6300   34.4540   40.2290 C   0  0  0  0  0  0  0  0  0  0  0  0
   43.4450   35.5180   41.4280 C   0  0  0  0  0  0  0  0  0  0  0  0
   42.4320   34.9940   40.7910 C   0  0  0  0  0  0  0  0  0  0  0  0
   44.3550   35.7430   43.7320 C   0  0  0  0  0  0  0  0  0  0  0  0
   44.1150   34.9910   42.5850 C   0  0  0  0  0  0  0  0  0  0  0  0
   44.5440   33.6670   42.5680 C   0  0  0  0  0  0  0  0  0  0  0  0
   45.1830   33.1570   43.6660 N   0  0  0  0  0  0  0  0  0  0  0  0
   45.4010   33.9120   44.7640 C   0  0  0  0  0  0  0  0  0  0  0  0
   44.9870   35.1960   44.7890 N   0  0  0  0  0  0  0  0  0  0  0  0
   46.2480   33.1290   46.1400 S   0  0  0  0  0  0  0  0  0  0  0  0
   41.5700   36.6556   39.7916 H   0  0  0  0  0  0  0  0  0  0  0  0
   42.4662   35.4901   38.7361 H   0  0  0  0  0  0  0  0  0  0  0  0
   40.8895   35.0450   37.1331 H   0  0  0  0  0  0  0  0  0  0  0  0
   38.7867   33.8931   36.5192 H   0  0  0  0  0  0  0  0  0  0  0  0
   37.2067   33.0905   38.2876 H   0  0  0  0  0  0  0  0  0  0  0  0
   37.7690   33.4643   40.6962 H   0  0  0  0  0  0  0  0  0  0  0  0
   39.8737   34.6158   41.2894 H   0  0  0  0  0  0  0  0  0  0  0  0
   43.8287   36.4707   41.0341 H   0  0  0  0  0  0  0  0  0  0  0  0
   42.0298   34.0415   41.1666 H   0  0  0  0  0  0  0  0  0  0  0  0
   44.0261   36.7918   43.7757 H   0  0  0  0  0  0  0  0  0  0  0  0
   44.3716   33.0377   41.6824 H   0  0  0  0  0  0  0  0  0  0  0  0
   45.7366   33.6018   47.3197 H   0  0  0  0  0  0  0  0  0  0  0  0
  1  9  1  0
  2  1  1  0
  2  7  1  0
  3  2  2  0
  4  3  1  0
  4  5  2  0
  5  6  1  0
  6  7  2  0
  8 11  1  0
  9  8  2  0
 10 15  2  0
 11 10  1  0
 12 11  2  0
 12 13  1  0
 13 14  2  0
 14 15  1  0
 14 16  1  0
  1 17  1  0
  1 18  1  0
  3 19  1  0
  4 20  1  0
  5 21  1  0
  6 22  1  0
  7 23  1  0
  8 24  1  0
  9 25  1  0
 10 26  1  0
 12 27  1  0
 16 28  1  0
M  ISO  8  17   8  18   8  19  14  20  14  21  14  22  14  23  14  26  14
M  ISO  2  27  14  28  11
M  END
>  <minimizedAffinity>  (1) 
-5.60139513

>  <minimizedRMSD>  (1) 
0.273667157

$$$$
