
     RDKit          3D

 48 51  0  0  0  0  0  0  0  0999 V2000
   39.9880   34.4950   41.2300 C   0  0  0  0  0  0  0  0  0  0  0  0
   39.3890   33.8990   40.0030 C   0  0  0  0  0  0  0  0  0  0  0  0
   39.3790   34.6280   38.8120 C   0  0  0  0  0  0  0  0  0  0  0  0
   38.8250   34.0750   37.6690 C   0  0  0  0  0  0  0  0  0  0  0  0
   38.2750   32.7840   37.7090 C   0  0  0  0  0  0  0  0  0  0  0  0
   38.2920   32.0700   38.9000 C   0  0  0  0  0  0  0  0  0  0  0  0
   38.8510   32.6380   40.0420 C   0  0  0  0  0  0  0  0  0  0  0  0
   38.7520   31.7120   41.1960 C   0  0  0  0  0  0  0  0  0  0  0  0
   39.9530   30.8610   41.4210 C   0  0  0  0  0  0  0  0  0  0  0  0
   39.8490   29.4560   40.8800 C   0  0  0  0  0  0  0  0  0  0  0  0
   38.7640   28.7450   41.3270 O   0  0  0  0  0  0  0  0  0  0  0  0
   37.7560   29.5040   41.8620 C   0  0  0  0  0  0  0  0  0  0  0  0
   37.5320   30.7980   41.1070 C   0  0  0  0  0  0  0  0  0  0  0  0
   42.3650   35.1280   41.0600 C   0  0  0  0  0  0  0  0  0  0  0  0
   41.4420   34.2100   41.3550 C   0  0  0  0  0  0  0  0  0  0  0  0
   44.4530   35.5050   42.2830 C   0  0  0  0  0  0  0  0  0  0  0  0
   43.7870   34.8790   41.1960 C   0  0  0  0  0  0  0  0  0  0  0  0
   44.5390   34.0790   40.3690 C   0  0  0  0  0  0  0  0  0  0  0  0
   45.8700   33.9320   40.6400 N   0  0  0  0  0  0  0  0  0  0  0  0
   46.4680   34.5360   41.6740 C   0  0  0  0  0  0  0  0  0  0  0  0
   45.7730   35.3260   42.5050 N   0  0  0  0  0  0  0  0  0  0  0  0
   47.8780   34.3580   41.9410 C   0  0  0  0  0  0  0  0  0  0  0  0
   48.8240   35.2450   42.2450 C   0  0  0  0  0  0  0  0  0  0  0  0
   50.1160   34.8540   42.4620 C   0  0  0  0  0  0  0  0  0  0  0  0
   50.3510   33.4480   42.3370 C   0  0  0  0  0  0  0  0  0  0  0  0
   48.6790   32.7690   41.9080 S   0  0  0  0  0  0  0  0  0  0  0  0
   39.4717   34.0830   42.1096 H   0  0  0  0  0  0  0  0  0  0  0  0
   39.8678   35.5863   41.1622 H   0  0  0  0  0  0  0  0  0  0  0  0
   39.8102   35.6395   38.7815 H   0  0  0  0  0  0  0  0  0  0  0  0
   38.8161   34.6476   36.7298 H   0  0  0  0  0  0  0  0  0  0  0  0
   37.8339   32.3413   36.8038 H   0  0  0  0  0  0  0  0  0  0  0  0
   37.8645   31.0573   38.9413 H   0  0  0  0  0  0  0  0  0  0  0  0
   38.6590   32.3946   42.0535 H   0  0  0  0  0  0  0  0  0  0  0  0
   40.8127   31.3496   40.9390 H   0  0  0  0  0  0  0  0  0  0  0  0
   40.0611   30.7636   42.5113 H   0  0  0  0  0  0  0  0  0  0  0  0
   40.7588   28.9098   41.1698 H   0  0  0  0  0  0  0  0  0  0  0  0
   39.7281   29.5523   39.7909 H   0  0  0  0  0  0  0  0  0  0  0  0
   36.8252   28.9183   41.8396 H   0  0  0  0  0  0  0  0  0  0  0  0
   38.0483   29.7662   42.8895 H   0  0  0  0  0  0  0  0  0  0  0  0
   36.6631   31.3177   41.5370 H   0  0  0  0  0  0  0  0  0  0  0  0
   37.3567   30.5558   40.0484 H   0  0  0  0  0  0  0  0  0  0  0  0
   42.0336   36.1129   40.6993 H   0  0  0  0  0  0  0  0  0  0  0  0
   41.7654   33.2167   41.6996 H   0  0  0  0  0  0  0  0  0  0  0  0
   43.8787   36.1526   42.9618 H   0  0  0  0  0  0  0  0  0  0  0  0
   44.0799   33.5691   39.5092 H   0  0  0  0  0  0  0  0  0  0  0  0
   48.5613   36.3103   42.3228 H   0  0  0  0  0  0  0  0  0  0  0  0
   50.9150   35.5668   42.7138 H   0  0  0  0  0  0  0  0  0  0  0  0
   51.2967   32.9009   42.4647 H   0  0  0  0  0  0  0  0  0  0  0  0
  1 15  1  0
  2  7  1  0
  2  1  1  0
  3  2  2  0
  4  5  2  0
  4  3  1  0
  5  6  1  0
  6  7  2  0
  7  8  1  0
  8  9  1  0
 10 11  1  0
 10  9  1  0
 11 12  1  0
 13  8  1  0
 13 12  1  0
 14 17  1  0
 14 15  2  0
 16 21  2  0
 17 16  1  0
 18 19  1  0
 18 17  2  0
 19 20  2  0
 20 22  1  0
 20 21  1  0
 22 23  2  0
 23 24  1  0
 25 24  2  0
 26 22  1  0
 26 25  1  0
  1 27  1  0
  1 28  1  0
  3 29  1  0
  4 30  1  0
  5 31  1  0
  6 32  1  0
  8 33  1  0
  9 34  1  0
  9 35  1  0
 10 36  1  0
 10 37  1  0
 12 38  1  0
 12 39  1  0
 13 40  1  0
 13 41  1  0
 14 42  1  0
 15 43  1  0
 16 44  1  0
 18 45  1  0
 23 46  1  0
 24 47  1  0
 25 48  1  0
M  ISO  8  27   8  28   8  29  14  30  14  31  14  32  14  33  13  34  13
M  ISO  8  35  13  36  13  37  13  38  13  39  13  40  13  41  13  44  14
M  ISO  4  45  14  46  14  47  14  48  14
M  END
>  <minimizedAffinity>  (1) 
-6.937922

>  <minimizedRMSD>  (1) 
5.14490223

$$$$
