
     RDKit          3D

 16 16  0  0  0  0  0  0  0  0999 V2000
   47.8060   34.9400   42.3620 C   0  0  0  0  0  0  0  0  0  0  0  0
   48.0940   33.8660   43.2170 C   0  0  0  0  0  0  0  0  0  0  0  0
   47.0780   33.3940   44.0690 C   0  0  0  0  0  0  0  0  0  0  0  0
   45.8790   34.0080   44.0090 N   0  0  0  0  0  0  0  0  0  0  0  0
   45.6190   35.0380   43.1830 C   0  0  0  0  0  0  0  0  0  0  0  0
   46.5710   35.4960   42.3710 N   0  0  0  0  0  0  0  0  0  0  0  0
   48.8940   35.4230   41.4700 C   0  0  0  0  0  0  0  0  0  0  0  0
   48.5460   35.3280   40.1370 F   0  0  0  0  0  0  0  0  0  0  0  0
   49.2150   36.7160   41.8290 F   0  0  0  0  0  0  0  0  0  0  0  0
   50.0470   34.6520   41.7050 F   0  0  0  0  0  0  0  0  0  0  0  0
   44.2740   35.6960   43.1460 C   0  0  0  0  0  0  0  0  0  0  0  0
   49.0918   33.4029   43.2215 H   0  0  0  0  0  0  0  0  0  0  0  0
   47.2555   32.5553   44.7583 H   0  0  0  0  0  0  0  0  0  0  0  0
   43.9217   35.8683   44.1737 H   0  0  0  0  0  0  0  0  0  0  0  0
   44.3509   36.6582   42.6186 H   0  0  0  0  0  0  0  0  0  0  0  0
   43.5616   35.0447   42.6186 H   0  0  0  0  0  0  0  0  0  0  0  0
  1  6  2  0
  1  2  1  0
  2  3  2  0
  4  3  1  0
  5  4  2  0
  6  5  1  0
  7 10  1  0
  7  9  1  0
  7  1  1  0
  8  7  1  0
 11  5  1  0
  2 12  1  0
  3 13  1  0
 11 14  1  0
 11 15  1  0
 11 16  1  0
M  ISO  5  12  14  13  14  14   8  15   8  16   8
M  END
>  <minimizedAffinity>  (1) 
-4.14847708

>  <minimizedRMSD>  (1) 
0.188997149

$$$$
