
     RDKit          3D

 37 39  0  0  0  0  0  0  0  0999 V2000
   44.1210   35.5300   41.9290 C   0  0  0  0  0  0  0  0  0  0  0  0
   43.2170   35.0390   41.0590 C   0  0  0  0  0  0  0  0  0  0  0  0
   44.6060   35.4070   44.3150 C   0  0  0  0  0  0  0  0  0  0  0  0
   44.6060   34.7530   43.0540 C   0  0  0  0  0  0  0  0  0  0  0  0
   45.0330   33.4490   43.0240 C   0  0  0  0  0  0  0  0  0  0  0  0
   45.4280   32.8640   44.1940 N   0  0  0  0  0  0  0  0  0  0  0  0
   45.4160   33.5050   45.3660 C   0  0  0  0  0  0  0  0  0  0  0  0
   45.0060   34.7820   45.4420 N   0  0  0  0  0  0  0  0  0  0  0  0
   45.8300   32.8610   46.5920 C   0  0  0  0  0  0  0  0  0  0  0  0
   45.2980   32.9230   47.8270 C   0  0  0  0  0  0  0  0  0  0  0  0
   45.8660   32.2270   48.8570 C   0  0  0  0  0  0  0  0  0  0  0  0
   47.0250   31.4600   48.5160 C   0  0  0  0  0  0  0  0  0  0  0  0
   47.2260   31.7980   46.7020 S   0  0  0  0  0  0  0  0  0  0  0  0
   42.7300   35.8560   39.9100 C   0  0  0  0  0  0  0  0  0  0  0  0
   41.4700   35.3130   39.3170 C   0  0  0  0  0  0  0  0  0  0  0  0
   41.1930   35.5190   37.9590 C   0  0  0  0  0  0  0  0  0  0  0  0
   40.0450   35.0360   37.3860 C   0  0  0  0  0  0  0  0  0  0  0  0
   39.1320   34.3210   38.1780 C   0  0  0  0  0  0  0  0  0  0  0  0
   39.4130   34.1200   39.5330 C   0  0  0  0  0  0  0  0  0  0  0  0
   40.5840   34.6150   40.1100 C   0  0  0  0  0  0  0  0  0  0  0  0
   40.7130   34.3390   41.5490 C   0  0  0  0  0  0  0  0  0  0  0  0
   40.7950   35.5210   42.2890 F   0  0  0  0  0  0  0  0  0  0  0  0
   41.5880   33.3750   41.9310 F   0  0  0  0  0  0  0  0  0  0  0  0
   39.4540   33.8240   42.0130 F   0  0  0  0  0  0  0  0  0  0  0  0
   44.5029   36.5510   41.7818 H   0  0  0  0  0  0  0  0  0  0  0  0
   42.8315   34.0182   41.1984 H   0  0  0  0  0  0  0  0  0  0  0  0
   44.2703   36.4528   44.3744 H   0  0  0  0  0  0  0  0  0  0  0  0
   45.0567   32.8870   42.0787 H   0  0  0  0  0  0  0  0  0  0  0  0
   44.4028   33.5361   48.0079 H   0  0  0  0  0  0  0  0  0  0  0  0
   45.4598   32.2545   49.8789 H   0  0  0  0  0  0  0  0  0  0  0  0
   47.6441   30.8264   49.1681 H   0  0  0  0  0  0  0  0  0  0  0  0
   42.5419   36.8815   40.2606 H   0  0  0  0  0  0  0  0  0  0  0  0
   43.5049   35.8320   39.1297 H   0  0  0  0  0  0  0  0  0  0  0  0
   41.9103   36.0789   37.3409 H   0  0  0  0  0  0  0  0  0  0  0  0
   39.8415   35.2065   36.3185 H   0  0  0  0  0  0  0  0  0  0  0  0
   38.2059   33.9234   37.7373 H   0  0  0  0  0  0  0  0  0  0  0  0
   38.6984   33.5617   40.1556 H   0  0  0  0  0  0  0  0  0  0  0  0
  1  4  1  0
  2  1  2  0
  3  8  2  0
  4  3  1  0
  5  4  2  0
  5  6  1  0
  6  7  2  0
  7  8  1  0
  7  9  1  0
  9 13  1  0
  9 10  2  0
 10 11  1  0
 12 11  2  0
 13 12  1  0
 14  2  1  0
 15 14  1  0
 15 20  1  0
 16 15  2  0
 17 16  1  0
 17 18  2  0
 18 19  1  0
 19 20  2  0
 20 21  1  0
 21 23  1  0
 21 24  1  0
 21 22  1  0
  1 25  1  0
  2 26  1  0
  3 27  1  0
  5 28  1  0
 10 29  1  0
 11 30  1  0
 12 31  1  0
 14 32  1  0
 14 33  1  0
 16 34  1  0
 17 35  1  0
 18 36  1  0
 19 37  1  0
M  ISO  8  27  14  28  14  29  14  30  14  31  14  32   8  33   8  34  14
M  ISO  3  35  14  36  14  37  14
M  END
>  <minimizedAffinity>  (1) 
-6.29187584

>  <minimizedRMSD>  (1) 
0.675105214

$$$$
