
     RDKit          3D

 50 53  0  0  0  0  0  0  0  0999 V2000
   42.0610   35.5470   40.8110 C   0  0  0  0  0  0  0  0  0  0  0  0
   41.2020   35.1380   39.6690 C   0  0  0  0  0  0  0  0  0  0  0  0
   41.1430   35.9490   38.5300 C   0  0  0  0  0  0  0  0  0  0  0  0
   40.3630   35.5930   37.4630 C   0  0  0  0  0  0  0  0  0  0  0  0
   39.6160   34.4040   37.5110 C   0  0  0  0  0  0  0  0  0  0  0  0
   39.6830   33.6050   38.6510 C   0  0  0  0  0  0  0  0  0  0  0  0
   40.4770   33.9700   39.7380 C   0  0  0  0  0  0  0  0  0  0  0  0
   40.3790   32.9840   40.8050 C   0  0  0  0  0  0  0  0  0  0  0  0
   41.3590   31.8360   40.6080 C   0  0  0  0  0  0  0  0  0  0  0  0
   41.6800   31.1830   41.9500 C   0  0  0  0  0  0  0  0  0  0  0  0
   40.3860   31.2000   42.7330 C   0  0  0  0  0  0  0  0  0  0  0  0
   39.2630   31.0040   41.7380 C   0  0  0  0  0  0  0  0  0  0  0  0
   39.0450   32.2750   40.9230 C   0  0  0  0  0  0  0  0  0  0  0  0
   44.2300   34.9970   41.8610 C   0  0  0  0  0  0  0  0  0  0  0  0
   43.3490   34.8380   40.8810 C   0  0  0  0  0  0  0  0  0  0  0  0
   45.7240   33.4970   43.0980 C   0  0  0  0  0  0  0  0  0  0  0  0
   45.4810   34.2670   41.9310 C   0  0  0  0  0  0  0  0  0  0  0  0
   46.4460   34.2470   40.9500 C   0  0  0  0  0  0  0  0  0  0  0  0
   47.5660   33.4970   41.1530 N   0  0  0  0  0  0  0  0  0  0  0  0
   47.7700   32.7790   42.2630 C   0  0  0  0  0  0  0  0  0  0  0  0
   46.8490   32.7680   43.2560 N   0  0  0  0  0  0  0  0  0  0  0  0
   48.9650   31.9850   42.4630 C   0  0  0  0  0  0  0  0  0  0  0  0
   49.1330   30.8010   43.0500 C   0  0  0  0  0  0  0  0  0  0  0  0
   50.3750   30.2380   43.1330 C   0  0  0  0  0  0  0  0  0  0  0  0
   51.4380   31.0020   42.5540 C   0  0  0  0  0  0  0  0  0  0  0  0
   50.5660   32.5130   41.9170 S   0  0  0  0  0  0  0  0  0  0  0  0
   41.5101   35.3545   41.7434 H   0  0  0  0  0  0  0  0  0  0  0  0
   42.2939   36.6122   40.6659 H   0  0  0  0  0  0  0  0  0  0  0  0
   41.7280   36.8798   38.4919 H   0  0  0  0  0  0  0  0  0  0  0  0
   40.3212   36.2355   36.5711 H   0  0  0  0  0  0  0  0  0  0  0  0
   38.9861   34.1074   36.6594 H   0  0  0  0  0  0  0  0  0  0  0  0
   39.1010   32.6726   38.6941 H   0  0  0  0  0  0  0  0  0  0  0  0
   40.5709   33.6020   41.6945 H   0  0  0  0  0  0  0  0  0  0  0  0
   40.9122   31.0876   39.9370 H   0  0  0  0  0  0  0  0  0  0  0  0
   42.2877   32.2275   40.1672 H   0  0  0  0  0  0  0  0  0  0  0  0
   42.0245   30.1491   41.8008 H   0  0  0  0  0  0  0  0  0  0  0  0
   42.4824   31.7171   42.4799 H   0  0  0  0  0  0  0  0  0  0  0  0
   40.3815   30.3858   43.4726 H   0  0  0  0  0  0  0  0  0  0  0  0
   40.2682   32.1498   43.2752 H   0  0  0  0  0  0  0  0  0  0  0  0
   39.5209   30.1780   41.0589 H   0  0  0  0  0  0  0  0  0  0  0  0
   38.3385   30.7691   42.2859 H   0  0  0  0  0  0  0  0  0  0  0  0
   38.3190   32.9260   41.4320 H   0  0  0  0  0  0  0  0  0  0  0  0
   38.6509   32.0292   39.9259 H   0  0  0  0  0  0  0  0  0  0  0  0
   43.9998   35.7180   42.6593 H   0  0  0  0  0  0  0  0  0  0  0  0
   43.5963   34.1341   40.0727 H   0  0  0  0  0  0  0  0  0  0  0  0
   44.9711   33.4941   43.8999 H   0  0  0  0  0  0  0  0  0  0  0  0
   46.3163   34.8237   40.0223 H   0  0  0  0  0  0  0  0  0  0  0  0
   48.2650   30.2726   43.4711 H   0  0  0  0  0  0  0  0  0  0  0  0
   50.5466   29.2630   43.6126 H   0  0  0  0  0  0  0  0  0  0  0  0
   52.5085   30.7549   42.4997 H   0  0  0  0  0  0  0  0  0  0  0  0
  1 15  1  0
  2  7  1  0
  2  1  1  0
  3  2  2  0
  4  5  2  0
  4  3  1  0
  5  6  1  0
  6  7  2  0
  7  8  1  0
  8 13  1  0
  9  8  1  0
  9 10  1  0
 10 11  1  0
 12 11  1  0
 13 12  1  0
 14 17  1  0
 15 14  2  0
 16 21  2  0
 17 16  1  0
 18 19  1  0
 18 17  2  0
 19 20  2  0
 20 22  1  0
 20 21  1  0
 22 23  2  0
 23 24  1  0
 25 24  2  0
 26 22  1  0
 26 25  1  0
  1 27  1  0
  1 28  1  0
  3 29  1  0
  4 30  1  0
  5 31  1  0
  6 32  1  0
  8 33  1  0
  9 34  1  0
  9 35  1  0
 10 36  1  0
 10 37  1  0
 11 38  1  0
 11 39  1  0
 12 40  1  0
 12 41  1  0
 13 42  1  0
 13 43  1  0
 14 44  1  0
 15 45  1  0
 16 46  1  0
 18 47  1  0
 23 48  1  0
 24 49  1  0
 25 50  1  0
M  ISO  8  27   8  28   8  29  14  30  14  31  14  32  14  33  13  34  13
M  ISO  8  35  13  36  13  37  13  38  13  39  13  40  13  41  13  42  13
M  ISO  6  43  13  46  14  47  14  48  14  49  14  50  14
M  END
>  <minimizedAffinity>  (1) 
-5.5282073

>  <minimizedRMSD>  (1) 
4.14922762

$$$$
