
     RDKit          3D

 18 19  0  0  0  0  0  0  0  0999 V2000
   44.7050   33.3280   42.8930 C   0  0  0  0  0  0  0  0  0  0  0  0
   45.3640   34.3990   43.5050 C   0  0  0  0  0  0  0  0  0  0  0  0
   46.3220   35.1300   42.8170 C   0  0  0  0  0  0  0  0  0  0  0  0
   46.5680   34.7350   41.5250 N   0  0  0  0  0  0  0  0  0  0  0  0
   45.9250   33.7070   40.9560 C   0  0  0  0  0  0  0  0  0  0  0  0
   44.9950   32.9950   41.6180 N   0  0  0  0  0  0  0  0  0  0  0  0
   44.9720   34.8440   45.2150 S   0  0  0  0  0  0  0  0  0  0  0  0
   45.6650   33.5510   46.2680 C   0  0  0  0  0  0  0  0  0  0  0  0
   45.1860   33.0670   47.4620 C   0  0  0  0  0  0  0  0  0  0  0  0
   46.0680   32.1070   47.8470 N   0  0  0  0  0  0  0  0  0  0  0  0
   47.0630   31.9830   46.9440 C   0  0  0  0  0  0  0  0  0  0  0  0
   46.8040   32.8880   45.9620 N   0  0  0  0  0  0  0  0  0  0  0  0
   43.9493   32.7564   43.4517 H   0  0  0  0  0  0  0  0  0  0  0  0
   46.8528   35.9755   43.2790 H   0  0  0  0  0  0  0  0  0  0  0  0
   46.1643   33.4369   39.9169 H   0  0  0  0  0  0  0  0  0  0  0  0
   44.2789   33.3891   47.9944 H   0  0  0  0  0  0  0  0  0  0  0  0
   45.9878   31.5504   48.7099 H   0  0  0  0  0  0  0  0  0  0  0  0
   47.9144   31.2882   46.9924 H   0  0  0  0  0  0  0  0  0  0  0  0
  1  2  2  0
  2  7  1  0
  3  2  1  0
  4  3  2  0
  5  4  1  0
  5  6  2  0
  6  1  1  0
  7  8  1  0
  8  9  2  0
  9 10  1  0
 11 10  1  0
 12  8  1  0
 12 11  2  0
  1 13  1  0
  3 14  1  0
  5 15  1  0
  9 16  1  0
 10 17  1  0
 11 18  1  0
M  ISO  6  13  14  14  14  15  14  16  14  17   9  18  14
M  END
>  <minimizedAffinity>  (1) 
-3.05789995

>  <minimizedRMSD>  (1) 
5.97899437

$$$$
