
     RDKit          3D

 37 39  0  0  0  0  0  0  0  0999 V2000
   41.2500   33.8220   39.5040 C   0  0  0  0  0  0  0  0  0  0  0  0
   40.2020   33.8370   38.6070 C   0  0  0  0  0  0  0  0  0  0  0  0
   40.1100   34.8250   37.6490 C   0  0  0  0  0  0  0  0  0  0  0  0
   41.0620   35.8130   37.5730 C   0  0  0  0  0  0  0  0  0  0  0  0
   42.1000   35.7970   38.4630 C   0  0  0  0  0  0  0  0  0  0  0  0
   42.2140   34.8090   39.4400 C   0  0  0  0  0  0  0  0  0  0  0  0
   43.3340   34.8120   40.3810 C   0  0  0  0  0  0  0  0  0  0  0  0
   44.4710   34.0970   40.2290 C   0  0  0  0  0  0  0  0  0  0  0  0
   45.5240   34.1190   41.1440 C   0  0  0  0  0  0  0  0  0  0  0  0
   45.4110   34.8900   42.2380 N   0  0  0  0  0  0  0  0  0  0  0  0
   44.2720   35.6050   42.3900 C   0  0  0  0  0  0  0  0  0  0  0  0
   43.2640   35.5760   41.5020 N   0  0  0  0  0  0  0  0  0  0  0  0
   41.4460   32.5960   40.7610 S   0  0  0  0  0  0  0  0  0  0  0  0
   38.7710   32.0440   41.2010 C   0  0  0  0  0  0  0  0  0  0  0  0
   40.0350   31.5320   40.8220 C   0  0  0  0  0  0  0  0  0  0  0  0
   40.1130   30.1880   40.5080 C   0  0  0  0  0  0  0  0  0  0  0  0
   38.9860   29.4390   40.5780 N   0  0  0  0  0  0  0  0  0  0  0  0
   37.8090   29.9710   40.9430 C   0  0  0  0  0  0  0  0  0  0  0  0
   37.6670   31.2490   41.2570 N   0  0  0  0  0  0  0  0  0  0  0  0
   36.6310   29.1770   41.0150 N   0  0  0  0  0  0  0  0  0  0  0  0
   36.1610   28.0400   39.8000 S   0  0  0  0  0  0  0  0  0  0  0  0
   36.7610   28.3440   38.4610 O   0  0  0  0  0  0  0  0  0  0  0  0
   36.5170   26.6370   40.2640 O   0  0  0  0  0  0  0  0  0  0  0  0
   34.4760   28.0720   39.6440 O   0  0  0  0  0  0  0  0  0  0  0  0
   39.4319   33.0531   38.6563 H   0  0  0  0  0  0  0  0  0  0  0  0
   39.2684   34.8220   36.9407 H   0  0  0  0  0  0  0  0  0  0  0  0
   40.9904   36.6023   36.8102 H   0  0  0  0  0  0  0  0  0  0  0  0
   42.8656   36.5848   38.4066 H   0  0  0  0  0  0  0  0  0  0  0  0
   44.5715   33.4634   39.3354 H   0  0  0  0  0  0  0  0  0  0  0  0
   46.4286   33.5170   40.9729 H   0  0  0  0  0  0  0  0  0  0  0  0
   44.1665   36.2396   43.2823 H   0  0  0  0  0  0  0  0  0  0  0  0
   38.6783   33.1099   41.4565 H   0  0  0  0  0  0  0  0  0  0  0  0
   41.0699   29.7361   40.2076 H   0  0  0  0  0  0  0  0  0  0  0  0
   36.0225   29.2857   41.8389 H   0  0  0  0  0  0  0  0  0  0  0  0
   37.6372   28.7879   38.5851 H   0  0  0  0  0  0  0  0  0  0  0  0
   36.5242   26.6086   41.2536 H   0  0  0  0  0  0  0  0  0  0  0  0
   34.0615   28.0799   40.5430 H   0  0  0  0  0  0  0  0  0  0  0  0
  1 13  1  0
  2  1  2  0
  3  2  1  0
  4  3  2  0
  4  5  1  0
  5  6  2  0
  6  1  1  0
  6  7  1  0
  7 12  1  0
  8  7  2  0
  8  9  1  0
  9 10  2  0
 10 11  1  0
 12 11  2  0
 13 15  1  0
 14 19  2  0
 15 14  1  0
 16 17  1  0
 16 15  2  0
 17 18  2  0
 18 20  1  0
 18 19  1  0
 21 23  1  0
 21 20  1  0
 22 21  1  0
 24 21  1  0
  2 25  1  0
  3 26  1  0
  4 27  1  0
  5 28  1  0
  8 29  1  0
  9 30  1  0
 11 31  1  0
 14 32  1  0
 16 33  1  0
 20 34  1  0
 22 35  1  0
 23 36  1  0
 24 37  1  0
M  ISO  8  25  14  26  14  27  14  28  14  29  14  30  14  31  14  32  14
M  ISO  4  33  14  35   3  36   3  37   3
M  END
>  <minimizedAffinity>  (1) 
-5.66506481

>  <minimizedRMSD>  (1) 
2.1992557

$$$$
