
     RDKit          3D

 35 37  0  0  0  0  0  0  0  0999 V2000
   41.1190   34.1660   39.6130 C   0  0  0  0  0  0  0  0  0  0  0  0
   40.2670   35.1810   40.0270 C   0  0  0  0  0  0  0  0  0  0  0  0
   38.8980   34.9280   40.1090 C   0  0  0  0  0  0  0  0  0  0  0  0
   38.3790   33.7120   39.7920 C   0  0  0  0  0  0  0  0  0  0  0  0
   39.2370   32.7200   39.3830 C   0  0  0  0  0  0  0  0  0  0  0  0
   40.6150   32.9230   39.2860 C   0  0  0  0  0  0  0  0  0  0  0  0
   41.5050   31.8530   38.8500 C   0  0  0  0  0  0  0  0  0  0  0  0
   42.0300   30.9150   39.6750 C   0  0  0  0  0  0  0  0  0  0  0  0
   42.8840   29.8890   39.2450 C   0  0  0  0  0  0  0  0  0  0  0  0
   43.1960   29.8460   37.9280 N   0  0  0  0  0  0  0  0  0  0  0  0
   42.6700   30.7820   37.1170 C   0  0  0  0  0  0  0  0  0  0  0  0
   41.8530   31.7570   37.5490 N   0  0  0  0  0  0  0  0  0  0  0  0
   42.8770   34.3790   39.4740 S   0  0  0  0  0  0  0  0  0  0  0  0
   43.9310   35.6410   41.6840 C   0  0  0  0  0  0  0  0  0  0  0  0
   43.6340   34.4150   41.0770 C   0  0  0  0  0  0  0  0  0  0  0  0
   43.9430   33.2570   41.7530 C   0  0  0  0  0  0  0  0  0  0  0  0
   44.5210   33.3540   42.9760 N   0  0  0  0  0  0  0  0  0  0  0  0
   44.7960   34.5610   43.5360 C   0  0  0  0  0  0  0  0  0  0  0  0
   44.5160   35.7040   42.9210 N   0  0  0  0  0  0  0  0  0  0  0  0
   45.3840   34.4040   44.7840 O   0  0  0  0  0  0  0  0  0  0  0  0
   47.5040   32.9960   44.3160 O   0  0  0  0  0  0  0  0  0  0  0  0
   46.3460   33.1000   45.2600 P   0  0  0  0  0  0  0  0  0  0  0  0
   45.4440   31.6690   45.2890 O   0  0  0  0  0  0  0  0  0  0  0  0
   46.8990   33.3870   46.8450 O   0  0  0  0  0  0  0  0  0  0  0  0
   40.6667   36.1723   40.2871 H   0  0  0  0  0  0  0  0  0  0  0  0
   38.2222   35.7312   40.4379 H   0  0  0  0  0  0  0  0  0  0  0  0
   37.2969   33.5267   39.8614 H   0  0  0  0  0  0  0  0  0  0  0  0
   38.8249   31.7337   39.1235 H   0  0  0  0  0  0  0  0  0  0  0  0
   41.7716   30.9609   40.7432 H   0  0  0  0  0  0  0  0  0  0  0  0
   43.2853   29.1471   39.9510 H   0  0  0  0  0  0  0  0  0  0  0  0
   42.9215   30.7471   36.0467 H   0  0  0  0  0  0  0  0  0  0  0  0
   43.6891   36.5750   41.1556 H   0  0  0  0  0  0  0  0  0  0  0  0
   43.7258   32.2735   41.3108 H   0  0  0  0  0  0  0  0  0  0  0  0
   45.2766   31.4034   46.2279 H   0  0  0  0  0  0  0  0  0  0  0  0
   46.2351   33.0425   47.4936 H   0  0  0  0  0  0  0  0  0  0  0  0
  1  2  2  0
  2  3  1  0
  4  3  2  0
  5  4  1  0
  6  5  2  0
  6  1  1  0
  7  6  1  0
  7  8  2  0
  9  8  1  0
 10  9  2  0
 11 12  2  0
 11 10  1  0
 12  7  1  0
 13  1  1  0
 13 15  1  0
 14 19  2  0
 15 14  1  0
 15 16  2  0
 16 17  1  0
 17 18  2  0
 18 20  1  0
 19 18  1  0
 20 22  1  0
 21 22  2  0
 22 23  1  0
 22 24  1  0
  2 25  1  0
  3 26  1  0
  4 27  1  0
  5 28  1  0
  8 29  1  0
  9 30  1  0
 11 31  1  0
 14 32  1  0
 16 33  1  0
 23 34  1  0
 24 35  1  0
M  ISO  8  25  14  26  14  27  14  28  14  29  14  30  14  31  14  32  14
M  ISO  3  33  14  34   3  35   3
M  END
>  <minimizedAffinity>  (1) 
-5.50488615

>  <minimizedRMSD>  (1) 
6.5238471

$$$$
