
     RDKit          3D

 31 33  0  0  0  0  0  0  0  0999 V2000
   40.6500   34.4350   40.0030 C   0  0  0  0  0  0  0  0  0  0  0  0
   39.5330   34.5120   39.1830 C   0  0  0  0  0  0  0  0  0  0  0  0
   39.6580   35.0690   37.9120 C   0  0  0  0  0  0  0  0  0  0  0  0
   40.8450   35.5430   37.4460 C   0  0  0  0  0  0  0  0  0  0  0  0
   41.9410   35.4620   38.2660 C   0  0  0  0  0  0  0  0  0  0  0  0
   41.8720   34.9120   39.5490 C   0  0  0  0  0  0  0  0  0  0  0  0
   43.0560   34.8390   40.3980 C   0  0  0  0  0  0  0  0  0  0  0  0
   44.0470   33.9280   40.2420 C   0  0  0  0  0  0  0  0  0  0  0  0
   45.1770   33.8700   41.0650 C   0  0  0  0  0  0  0  0  0  0  0  0
   45.2770   34.7700   42.0630 N   0  0  0  0  0  0  0  0  0  0  0  0
   44.2840   35.6800   42.2160 C   0  0  0  0  0  0  0  0  0  0  0  0
   43.2040   35.7160   41.4100 N   0  0  0  0  0  0  0  0  0  0  0  0
   40.6130   33.7530   41.6250 S   0  0  0  0  0  0  0  0  0  0  0  0
   38.4720   32.0930   41.0520 C   0  0  0  0  0  0  0  0  0  0  0  0
   39.7350   32.2070   41.6420 C   0  0  0  0  0  0  0  0  0  0  0  0
   40.2920   31.0820   42.2450 C   0  0  0  0  0  0  0  0  0  0  0  0
   39.5740   29.9340   42.2250 N   0  0  0  0  0  0  0  0  0  0  0  0
   38.3630   29.8680   41.6460 C   0  0  0  0  0  0  0  0  0  0  0  0
   37.7960   30.9060   41.0630 N   0  0  0  0  0  0  0  0  0  0  0  0
   37.7170   28.5610   41.7080 C   0  0  0  0  0  0  0  0  0  0  0  0
   38.3920   27.5060   41.5770 O   0  0  0  0  0  0  0  0  0  0  0  0
   38.5596   34.1374   39.5327 H   0  0  0  0  0  0  0  0  0  0  0  0
   38.7698   35.1273   37.2656 H   0  0  0  0  0  0  0  0  0  0  0  0
   40.9234   35.9792   36.4392 H   0  0  0  0  0  0  0  0  0  0  0  0
   42.9067   35.8426   37.9019 H   0  0  0  0  0  0  0  0  0  0  0  0
   43.9584   33.1959   39.4258 H   0  0  0  0  0  0  0  0  0  0  0  0
   45.9590   33.1137   40.9025 H   0  0  0  0  0  0  0  0  0  0  0  0
   44.3624   36.4171   43.0287 H   0  0  0  0  0  0  0  0  0  0  0  0
   38.0165   32.9718   40.5722 H   0  0  0  0  0  0  0  0  0  0  0  0
   41.2824   31.1245   42.7218 H   0  0  0  0  0  0  0  0  0  0  0  0
   36.6310   28.4968   41.8706 H   0  0  0  0  0  0  0  0  0  0  0  0
  1 13  1  0
  2  1  2  0
  3  2  1  0
  4  3  2  0
  4  5  1  0
  5  6  2  0
  6  1  1  0
  6  7  1  0
  7 12  1  0
  8  7  2  0
  8  9  1  0
  9 10  2  0
 10 11  1  0
 12 11  2  0
 13 15  1  0
 14 19  2  0
 14 15  1  0
 15 16  2  0
 17 16  1  0
 18 20  1  0
 18 17  2  0
 19 18  1  0
 21 20  2  0
  2 22  1  0
  3 23  1  0
  4 24  1  0
  5 25  1  0
  8 26  1  0
  9 27  1  0
 11 28  1  0
 14 29  1  0
 16 30  1  0
 20 31  1  0
M  ISO  8  22  14  23  14  24  14  25  14  26  14  27  14  28  14  29  14
M  ISO  2  30  14  31   6
M  END
>  <minimizedAffinity>  (1) 
-5.26462173

>  <minimizedRMSD>  (1) 
1.79686725

$$$$
