
     RDKit          3D

 44 47  0  0  0  0  0  0  0  0999 V2000
   41.5820   33.7560   39.8080 C   0  0  0  0  0  0  0  0  0  0  0  0
   40.3260   34.0910   39.3500 C   0  0  0  0  0  0  0  0  0  0  0  0
   39.6930   35.2320   39.8310 C   0  0  0  0  0  0  0  0  0  0  0  0
   40.2900   36.0320   40.7510 C   0  0  0  0  0  0  0  0  0  0  0  0
   41.5440   35.7000   41.2110 C   0  0  0  0  0  0  0  0  0  0  0  0
   42.2070   34.5620   40.7480 C   0  0  0  0  0  0  0  0  0  0  0  0
   43.5310   34.2240   41.2420 C   0  0  0  0  0  0  0  0  0  0  0  0
   44.6960   34.5840   40.6600 C   0  0  0  0  0  0  0  0  0  0  0  0
   45.9550   34.2550   41.1420 C   0  0  0  0  0  0  0  0  0  0  0  0
   46.0270   33.5260   42.2690 N   0  0  0  0  0  0  0  0  0  0  0  0
   44.8640   33.1530   42.8710 C   0  0  0  0  0  0  0  0  0  0  0  0
   43.6590   33.4920   42.3720 N   0  0  0  0  0  0  0  0  0  0  0  0
   42.4690   32.3300   39.2610 S   0  0  0  0  0  0  0  0  0  0  0  0
   43.2980   30.0010   40.5220 C   0  0  0  0  0  0  0  0  0  0  0  0
   42.3160   31.0000   40.4370 C   0  0  0  0  0  0  0  0  0  0  0  0
   41.2220   30.9320   41.2890 C   0  0  0  0  0  0  0  0  0  0  0  0
   41.1640   29.8880   42.1670 N   0  0  0  0  0  0  0  0  0  0  0  0
   42.1310   28.9590   42.2050 C   0  0  0  0  0  0  0  0  0  0  0  0
   43.1910   28.9730   41.4210 N   0  0  0  0  0  0  0  0  0  0  0  0
   41.9960   27.9040   43.1480 N   0  0  0  0  0  0  0  0  0  0  0  0
   40.7690   27.5760   43.8500 C   0  0  0  0  0  0  0  0  0  0  0  0
   41.0340   27.9180   45.3020 C   0  0  0  0  0  0  0  0  0  0  0  0
   42.1140   27.0120   45.8150 C   0  0  0  0  0  0  0  0  0  0  0  0
   42.8870   26.2910   44.7660 C   0  0  0  0  0  0  0  0  0  0  0  0
   43.1180   27.0380   43.4970 C   0  0  0  0  0  0  0  0  0  0  0  0
   39.8246   33.4563   38.6045 H   0  0  0  0  0  0  0  0  0  0  0  0
   38.6906   35.4909   39.4593 H   0  0  0  0  0  0  0  0  0  0  0  0
   39.7791   36.9322   41.1233 H   0  0  0  0  0  0  0  0  0  0  0  0
   42.0329   36.3433   41.9574 H   0  0  0  0  0  0  0  0  0  0  0  0
   44.6426   35.1809   39.7376 H   0  0  0  0  0  0  0  0  0  0  0  0
   46.8657   34.5807   40.6181 H   0  0  0  0  0  0  0  0  0  0  0  0
   44.9095   32.5561   43.7938 H   0  0  0  0  0  0  0  0  0  0  0  0
   44.1706   30.0443   39.8537 H   0  0  0  0  0  0  0  0  0  0  0  0
   40.4288   31.6934   41.2578 H   0  0  0  0  0  0  0  0  0  0  0  0
   39.9312   28.1729   43.4605 H   0  0  0  0  0  0  0  0  0  0  0  0
   40.4939   26.5187   43.7218 H   0  0  0  0  0  0  0  0  0  0  0  0
   41.3591   28.9657   45.3831 H   0  0  0  0  0  0  0  0  0  0  0  0
   40.1168   27.7840   45.8942 H   0  0  0  0  0  0  0  0  0  0  0  0
   42.8194   27.6204   46.4000 H   0  0  0  0  0  0  0  0  0  0  0  0
   41.6066   26.2367   46.4078 H   0  0  0  0  0  0  0  0  0  0  0  0
   43.8693   26.0334   45.1888 H   0  0  0  0  0  0  0  0  0  0  0  0
   42.2738   25.4202   44.4908 H   0  0  0  0  0  0  0  0  0  0  0  0
   43.2711   26.3135   42.6836 H   0  0  0  0  0  0  0  0  0  0  0  0
   44.0021   27.6766   43.6403 H   0  0  0  0  0  0  0  0  0  0  0  0
  1  6  1  0
  2  1  2  0
  2  3  1  0
  3  4  2  0
  4  5  1  0
  6  5  2  0
  6  7  1  0
  7 12  2  0
  8  9  2  0
  8  7  1  0
  9 10  1  0
 10 11  2  0
 12 11  1  0
 13  1  1  0
 13 15  1  0
 14 19  2  0
 15 14  1  0
 15 16  2  0
 16 17  1  0
 17 18  2  0
 18 20  1  0
 19 18  1  0
 20 25  1  0
 20 21  1  0
 21 22  1  0
 22 23  1  0
 24 23  1  0
 25 24  1  0
  2 26  1  0
  3 27  1  0
  4 28  1  0
  5 29  1  0
  8 30  1  0
  9 31  1  0
 11 32  1  0
 14 33  1  0
 16 34  1  0
 21 35  1  0
 21 36  1  0
 22 37  1  0
 22 38  1  0
 23 39  1  0
 23 40  1  0
 24 41  1  0
 24 42  1  0
 25 43  1  0
 25 44  1  0
M  ISO  8  26  14  27  14  28  14  29  14  30  14  31  14  32  14  33  14
M  ISO  8  34  14  35  13  36  13  37  13  38  13  39  13  40  13  41  13
M  ISO  3  42  13  43  13  44  13
M  END
>  <minimizedAffinity>  (1) 
-4.67734528

>  <minimizedRMSD>  (1) 
3.01524901

$$$$
