
     RDKit          3D

 41 44  0  0  0  0  0  0  0  0999 V2000
   38.5530   31.7890   41.2320 C   0  0  0  0  0  0  0  0  0  0  0  0
   39.9240   31.5920   40.9560 C   0  0  0  0  0  0  0  0  0  0  0  0
   40.3310   30.3360   40.5760 C   0  0  0  0  0  0  0  0  0  0  0  0
   39.4100   29.3560   40.4850 N   0  0  0  0  0  0  0  0  0  0  0  0
   38.1030   29.5640   40.7520 C   0  0  0  0  0  0  0  0  0  0  0  0
   37.6430   30.7660   41.1290 N   0  0  0  0  0  0  0  0  0  0  0  0
   37.1510   28.4290   40.6280 C   0  0  0  0  0  0  0  0  0  0  0  0
   36.4210   28.4490   39.3000 C   0  0  0  0  0  0  0  0  0  0  0  0
   35.0820   27.8410   39.5080 C   0  0  0  0  0  0  0  0  0  0  0  0
   34.9820   26.4690   39.9430 C   0  0  0  0  0  0  0  0  0  0  0  0
   33.1260   26.2050   40.0460 S   0  0  0  0  0  0  0  0  0  0  0  0
   32.8550   27.9990   39.4820 C   0  0  0  0  0  0  0  0  0  0  0  0
   33.8890   28.4230   39.3370 N   0  0  0  0  0  0  0  0  0  0  0  0
   41.0580   32.9440   41.1050 S   0  0  0  0  0  0  0  0  0  0  0  0
   40.9560   33.9920   39.6820 C   0  0  0  0  0  0  0  0  0  0  0  0
   39.8700   34.0190   38.8220 C   0  0  0  0  0  0  0  0  0  0  0  0
   39.8580   34.8680   37.7230 C   0  0  0  0  0  0  0  0  0  0  0  0
   40.9160   35.6990   37.4640 C   0  0  0  0  0  0  0  0  0  0  0  0
   41.9980   35.6740   38.3190 C   0  0  0  0  0  0  0  0  0  0  0  0
   42.0390   34.8340   39.4280 C   0  0  0  0  0  0  0  0  0  0  0  0
   43.1760   34.8190   40.3130 C   0  0  0  0  0  0  0  0  0  0  0  0
   44.2800   34.0260   40.1530 C   0  0  0  0  0  0  0  0  0  0  0  0
   45.3670   34.0390   41.0350 C   0  0  0  0  0  0  0  0  0  0  0  0
   45.3350   34.8630   42.0900 N   0  0  0  0  0  0  0  0  0  0  0  0
   44.2520   35.6440   42.2530 C   0  0  0  0  0  0  0  0  0  0  0  0
   43.2060   35.6210   41.3910 N   0  0  0  0  0  0  0  0  0  0  0  0
   38.2055   32.7871   41.5371 H   0  0  0  0  0  0  0  0  0  0  0  0
   41.3885   30.1340   40.3503 H   0  0  0  0  0  0  0  0  0  0  0  0
   37.7093   27.4851   40.7132 H   0  0  0  0  0  0  0  0  0  0  0  0
   36.4039   28.5203   41.4302 H   0  0  0  0  0  0  0  0  0  0  0  0
   36.9840   27.8679   38.5548 H   0  0  0  0  0  0  0  0  0  0  0  0
   36.3212   29.4809   38.9322 H   0  0  0  0  0  0  0  0  0  0  0  0
   35.7909   25.7559   40.1600 H   0  0  0  0  0  0  0  0  0  0  0  0
   31.8947   28.5135   39.3297 H   0  0  0  0  0  0  0  0  0  0  0  0
   39.0088   33.3615   39.0116 H   0  0  0  0  0  0  0  0  0  0  0  0
   38.9870   34.8733   37.0512 H   0  0  0  0  0  0  0  0  0  0  0  0
   40.9028   36.3713   36.5934 H   0  0  0  0  0  0  0  0  0  0  0  0
   42.8528   36.3368   38.1187 H   0  0  0  0  0  0  0  0  0  0  0  0
   44.3148   33.3455   39.2895 H   0  0  0  0  0  0  0  0  0  0  0  0
   46.2333   33.3830   40.8642 H   0  0  0  0  0  0  0  0  0  0  0  0
   44.2138   36.3251   43.1159 H   0  0  0  0  0  0  0  0  0  0  0  0
  2 14  1  0
  2  1  2  0
  3  2  1  0
  4  3  2  0
  4  5  1  0
  5  6  2  0
  6  1  1  0
  7  5  1  0
  8  9  1  0
  8  7  1  0
  9 10  2  0
 10 11  1  0
 12 11  1  0
 13 12  2  0
 13  9  1  0
 15 14  1  0
 16 15  2  0
 17 16  1  0
 18 17  2  0
 18 19  1  0
 19 20  2  0
 20 15  1  0
 20 21  1  0
 21 26  1  0
 22 21  2  0
 22 23  1  0
 23 24  2  0
 24 25  1  0
 26 25  2  0
  1 27  1  0
  3 28  1  0
  7 29  1  0
  7 30  1  0
  8 31  1  0
  8 32  1  0
 10 33  1  0
 12 34  1  0
 16 35  1  0
 17 36  1  0
 18 37  1  0
 19 38  1  0
 22 39  1  0
 23 40  1  0
 25 41  1  0
M  ISO  8  27  14  28  14  29   8  30   8  31   8  32   8  33  14  34  14
M  ISO  7  35  14  36  14  37  14  38  14  39  14  40  14  41  14
M  END
>  <minimizedAffinity>  (1) 
-5.47733879

>  <minimizedRMSD>  (1) 
0.522604764

$$$$
