
     RDKit          3D

 41 43  0  0  0  0  0  0  0  0999 V2000
   38.5790   31.7500   41.2580 C   0  0  0  0  0  0  0  0  0  0  0  0
   39.9590   31.6480   41.0290 C   0  0  0  0  0  0  0  0  0  0  0  0
   40.4710   30.4140   40.6660 C   0  0  0  0  0  0  0  0  0  0  0  0
   39.6220   29.3710   40.5490 N   0  0  0  0  0  0  0  0  0  0  0  0
   38.2820   29.5050   40.7790 C   0  0  0  0  0  0  0  0  0  0  0  0
   37.7480   30.6670   41.1290 N   0  0  0  0  0  0  0  0  0  0  0  0
   37.4270   28.3050   40.6260 C   0  0  0  0  0  0  0  0  0  0  0  0
   36.5510   28.3960   39.3880 C   0  0  0  0  0  0  0  0  0  0  0  0
   35.2540   28.7930   39.7030 O   0  0  0  0  0  0  0  0  0  0  0  0
   34.1980   26.4710   39.9930 O   0  0  0  0  0  0  0  0  0  0  0  0
   34.2160   27.6400   39.0270 P   0  0  0  0  0  0  0  0  0  0  0  0
   32.6760   28.2500   38.7420 O   0  0  0  0  0  0  0  0  0  0  0  0
   34.8470   27.1290   37.5220 O   0  0  0  0  0  0  0  0  0  0  0  0
   41.0010   33.0740   41.2060 S   0  0  0  0  0  0  0  0  0  0  0  0
   40.9360   34.0750   39.7530 C   0  0  0  0  0  0  0  0  0  0  0  0
   39.8420   34.1120   38.9060 C   0  0  0  0  0  0  0  0  0  0  0  0
   39.8530   34.9260   37.7730 C   0  0  0  0  0  0  0  0  0  0  0  0
   40.9380   35.6990   37.4760 C   0  0  0  0  0  0  0  0  0  0  0  0
   42.0240   35.6600   38.3220 C   0  0  0  0  0  0  0  0  0  0  0  0
   42.0440   34.8590   39.4600 C   0  0  0  0  0  0  0  0  0  0  0  0
   43.1950   34.8290   40.3390 C   0  0  0  0  0  0  0  0  0  0  0  0
   44.2790   34.0320   40.1800 C   0  0  0  0  0  0  0  0  0  0  0  0
   45.3700   34.0240   41.0400 C   0  0  0  0  0  0  0  0  0  0  0  0
   45.3600   34.8500   42.0900 N   0  0  0  0  0  0  0  0  0  0  0  0
   44.2830   35.6600   42.2710 C   0  0  0  0  0  0  0  0  0  0  0  0
   43.2340   35.6470   41.4190 N   0  0  0  0  0  0  0  0  0  0  0  0
   38.1532   32.7219   41.5480 H   0  0  0  0  0  0  0  0  0  0  0  0
   41.5470   30.2861   40.4769 H   0  0  0  0  0  0  0  0  0  0  0  0
   38.0703   27.4166   40.5435 H   0  0  0  0  0  0  0  0  0  0  0  0
   36.7716   28.2352   41.5066 H   0  0  0  0  0  0  0  0  0  0  0  0
   36.5141   27.4089   38.9041 H   0  0  0  0  0  0  0  0  0  0  0  0
   36.9862   29.1491   38.7146 H   0  0  0  0  0  0  0  0  0  0  0  0
   32.2265   28.4281   39.6059 H   0  0  0  0  0  0  0  0  0  0  0  0
   35.6071   26.5134   37.6748 H   0  0  0  0  0  0  0  0  0  0  0  0
   38.9582   33.4957   39.1276 H   0  0  0  0  0  0  0  0  0  0  0  0
   38.9754   34.9451   37.1101 H   0  0  0  0  0  0  0  0  0  0  0  0
   40.9448   36.3387   36.5811 H   0  0  0  0  0  0  0  0  0  0  0  0
   42.9023   36.2808   38.0913 H   0  0  0  0  0  0  0  0  0  0  0  0
   44.2963   33.3497   39.3174 H   0  0  0  0  0  0  0  0  0  0  0  0
   46.2228   33.3528   40.8605 H   0  0  0  0  0  0  0  0  0  0  0  0
   44.2651   36.3433   43.1329 H   0  0  0  0  0  0  0  0  0  0  0  0
  2 14  1  0
  2  1  2  0
  3  2  1  0
  4  3  2  0
  4  5  1  0
  5  6  2  0
  6  1  1  0
  7  5  1  0
  8  9  1  0
  8  7  1  0
 11  9  1  0
 11 10  2  0
 12 11  1  0
 13 11  1  0
 15 14  1  0
 16 15  2  0
 17 16  1  0
 18 17  2  0
 18 19  1  0
 19 20  2  0
 20 15  1  0
 20 21  1  0
 21 26  1  0
 22 21  2  0
 22 23  1  0
 23 24  2  0
 24 25  1  0
 26 25  2  0
  1 27  1  0
  3 28  1  0
  7 29  1  0
  7 30  1  0
  8 31  1  0
  8 32  1  0
 12 33  1  0
 13 34  1  0
 16 35  1  0
 17 36  1  0
 18 37  1  0
 19 38  1  0
 22 39  1  0
 23 40  1  0
 25 41  1  0
M  ISO  8  27  14  28  14  29   8  30   8  31   8  32   8  33   3  34   3
M  ISO  7  35  14  36  14  37  14  38  14  39  14  40  14  41  14
M  END
>  <minimizedAffinity>  (1) 
-5.03109121

>  <minimizedRMSD>  (1) 
0.932775676

$$$$
