
     RDKit          3D

 21 22  0  0  0  0  0  0  0  0999 V2000
   45.1430   33.1250   47.3560 O   0  0  0  0  0  0  0  0  0  0  0  0
   48.4260   31.9110   48.4990 N   0  0  0  0  0  0  0  0  0  0  0  0
   47.5490   32.6600   47.8050 C   0  0  0  0  0  0  0  0  0  0  0  0
   46.1930   32.4640   47.9700 C   0  0  0  0  0  0  0  0  0  0  0  0
   45.7810   31.4730   48.8690 C   0  0  0  0  0  0  0  0  0  0  0  0
   44.5790   31.1860   49.1180 O   0  0  0  0  0  0  0  0  0  0  0  0
   46.7150   30.7510   49.5390 N   0  0  0  0  0  0  0  0  0  0  0  0
   48.0400   30.9580   49.3660 C   0  0  0  0  0  0  0  0  0  0  0  0
   48.9150   30.2810   49.9920 O   0  0  0  0  0  0  0  0  0  0  0  0
   44.6720   35.6550   44.8910 C   0  0  0  0  0  0  0  0  0  0  0  0
   45.4230   35.1770   43.7980 C   0  0  0  0  0  0  0  0  0  0  0  0
   46.1050   33.9470   43.9280 C   0  0  0  0  0  0  0  0  0  0  0  0
   45.9800   33.3170   45.1130 N   0  0  0  0  0  0  0  0  0  0  0  0
   45.2640   33.7800   46.1440 C   0  0  0  0  0  0  0  0  0  0  0  0
   44.6100   34.9560   46.0230 N   0  0  0  0  0  0  0  0  0  0  0  0
   49.4335   32.0743   48.3605 H   0  0  0  0  0  0  0  0  0  0  0  0
   47.9130   33.4280   47.1066 H   0  0  0  0  0  0  0  0  0  0  0  0
   46.4051   30.0236   50.1991 H   0  0  0  0  0  0  0  0  0  0  0  0
   44.1340   36.6109   44.8085 H   0  0  0  0  0  0  0  0  0  0  0  0
   45.4769   35.7512   42.8613 H   0  0  0  0  0  0  0  0  0  0  0  0
   46.7050   33.5265   43.1075 H   0  0  0  0  0  0  0  0  0  0  0  0
  1  4  1  0
  2  8  1  0
  3  4  2  0
  3  2  1  0
  4  5  1  0
  5  6  2  0
  5  7  1  0
  8  7  1  0
  8  9  2  0
 10 15  2  0
 11 12  2  0
 11 10  1  0
 12 13  1  0
 13 14  2  0
 14  1  1  0
 15 14  1  0
  2 16  1  0
  3 17  1  0
  7 18  1  0
 10 19  1  0
 11 20  1  0
 12 21  1  0
M  ISO  6  16   9  17  14  18   9  19  14  20  14  21  14
M  END
>  <minimizedAffinity>  (1) 
-4.87953329

>  <minimizedRMSD>  (1) 
1.50005627

$$$$
