
     RDKit          3D

 26 27  0  0  0  0  0  0  0  0999 V2000
   45.8730   30.6440   46.7650 C   0  0  0  0  0  0  0  0  0  0  0  0
   46.3460   31.8870   47.0420 C   0  0  0  0  0  0  0  0  0  0  0  0
   46.1150   32.3960   48.3280 C   0  0  0  0  0  0  0  0  0  0  0  0
   45.4380   31.6810   49.2810 C   0  0  0  0  0  0  0  0  0  0  0  0
   44.9660   30.4230   48.9800 C   0  0  0  0  0  0  0  0  0  0  0  0
   45.1920   29.9100   47.7030 C   0  0  0  0  0  0  0  0  0  0  0  0
   46.1950   30.0770   45.1520 S   0  0  0  0  0  0  0  0  0  0  0  0
   45.1390   30.5150   44.1740 O   0  0  0  0  0  0  0  0  0  0  0  0
   46.1490   28.5600   45.1670 O   0  0  0  0  0  0  0  0  0  0  0  0
   47.0470   32.7610   46.2260 O   0  0  0  0  0  0  0  0  0  0  0  0
   46.7820   34.3250   43.0610 C   0  0  0  0  0  0  0  0  0  0  0  0
   45.5990   35.0550   43.1550 C   0  0  0  0  0  0  0  0  0  0  0  0
   44.8880   34.9940   44.3480 C   0  0  0  0  0  0  0  0  0  0  0  0
   45.3910   34.2270   45.3450 N   0  0  0  0  0  0  0  0  0  0  0  0
   46.5230   33.5410   45.2280 C   0  0  0  0  0  0  0  0  0  0  0  0
   47.2050   33.5980   44.0870 N   0  0  0  0  0  0  0  0  0  0  0  0
   43.6830   35.7340   44.4530 N   0  0  0  0  0  0  0  0  0  0  0  0
   46.4885   33.3996   48.5794 H   0  0  0  0  0  0  0  0  0  0  0  0
   45.2726   32.1095   50.2805 H   0  0  0  0  0  0  0  0  0  0  0  0
   44.4211   29.8339   49.7324 H   0  0  0  0  0  0  0  0  0  0  0  0
   44.8207   28.9072   47.4453 H   0  0  0  0  0  0  0  0  0  0  0  0
   47.4099   30.5835   44.7720 H   0  0  0  0  0  0  0  0  0  0  0  0
   47.3686   34.3516   42.1308 H   0  0  0  0  0  0  0  0  0  0  0  0
   45.2386   35.6612   42.3108 H   0  0  0  0  0  0  0  0  0  0  0  0
   43.1363   35.7068   45.3255 H   0  0  0  0  0  0  0  0  0  0  0  0
   43.3544   36.2987   43.6568 H   0  0  0  0  0  0  0  0  0  0  0  0
  1  2  2  0
  1  6  1  0
  2  3  1  0
  3  4  2  0
  5  4  1  0
  6  5  2  0
  7  9  2  0
  7  1  1  0
  8  7  2  0
 10  2  1  0
 11 12  2  0
 11 16  1  0
 12 13  1  0
 13 17  1  0
 13 14  2  0
 15 14  1  0
 15 10  1  0
 16 15  2  0
  3 18  1  0
  4 19  1  0
  5 20  1  0
  6 21  1  0
  7 22  1  0
 11 23  1  0
 12 24  1  0
 17 25  1  0
 17 26  1  0
M  ISO  7  18  14  19  14  20  14  21  14  22  11  23  14  24  14
M  END
>  <minimizedAffinity>  (1) 
-5.17113733

>  <minimizedRMSD>  (1) 
0.528184354

$$$$
