
     RDKit          3D

 28 29  0  0  0  0  0  0  0  0999 V2000
   45.2150   30.0970   47.4700 C   0  0  0  0  0  0  0  0  0  0  0  0
   45.6810   31.1360   46.7080 C   0  0  0  0  0  0  0  0  0  0  0  0
   45.9990   32.3110   47.3790 C   0  0  0  0  0  0  0  0  0  0  0  0
   45.8610   32.4490   48.7350 C   0  0  0  0  0  0  0  0  0  0  0  0
   45.3910   31.3890   49.4760 C   0  0  0  0  0  0  0  0  0  0  0  0
   45.0620   30.1950   48.8350 C   0  0  0  0  0  0  0  0  0  0  0  0
   44.8330   28.6480   46.5690 S   0  0  0  0  0  0  0  0  0  0  0  0
   43.4970   28.7460   45.8810 O   0  0  0  0  0  0  0  0  0  0  0  0
   44.7140   27.5030   47.5660 O   0  0  0  0  0  0  0  0  0  0  0  0
   45.8880   31.1920   45.3410 O   0  0  0  0  0  0  0  0  0  0  0  0
   47.8310   33.4970   43.4800 C   0  0  0  0  0  0  0  0  0  0  0  0
   46.9240   34.5070   43.1670 C   0  0  0  0  0  0  0  0  0  0  0  0
   45.6050   34.3800   43.6170 C   0  0  0  0  0  0  0  0  0  0  0  0
   45.2950   33.2770   44.3310 N   0  0  0  0  0  0  0  0  0  0  0  0
   46.1820   32.3190   44.6200 C   0  0  0  0  0  0  0  0  0  0  0  0
   47.4440   32.4480   44.1840 N   0  0  0  0  0  0  0  0  0  0  0  0
   44.0070   35.5130   42.0560 C   0  0  0  0  0  0  0  0  0  0  0  0
   44.3510   34.7520   41.1310 O   0  0  0  0  0  0  0  0  0  0  0  0
   44.6170   35.3640   43.3420 N   0  0  0  0  0  0  0  0  0  0  0  0
   46.3769   33.1649   46.7975 H   0  0  0  0  0  0  0  0  0  0  0  0
   46.1232   33.3975   49.2265 H   0  0  0  0  0  0  0  0  0  0  0  0
   45.2757   31.4828   50.5659 H   0  0  0  0  0  0  0  0  0  0  0  0
   44.6839   29.3397   49.4142 H   0  0  0  0  0  0  0  0  0  0  0  0
   45.8146   28.4615   45.6317 H   0  0  0  0  0  0  0  0  0  0  0  0
   48.8742   33.5732   43.1395 H   0  0  0  0  0  0  0  0  0  0  0  0
   47.2371   35.3832   42.5803 H   0  0  0  0  0  0  0  0  0  0  0  0
   43.2453   36.2883   41.8864 H   0  0  0  0  0  0  0  0  0  0  0  0
   44.3275   35.9972   44.1010 H   0  0  0  0  0  0  0  0  0  0  0  0
  1  6  2  0
  2  3  2  0
  2  1  1  0
  3  4  1  0
  4  5  2  0
  6  5  1  0
  7  1  1  0
  7  9  2  0
  8  7  2  0
 10  2  1  0
 11 16  2  0
 12 11  1  0
 12 13  2  0
 13 14  1  0
 14 15  2  0
 15 10  1  0
 16 15  1  0
 17 19  1  0
 18 17  2  0
 19 13  1  0
  3 20  1  0
  4 21  1  0
  5 22  1  0
  6 23  1  0
  7 24  1  0
 11 25  1  0
 12 26  1  0
 17 27  1  0
 19 28  1  0
M  ISO  8  20  14  21  14  22  14  23  14  24  11  25  14  26  14  27   6
M  END
>  <minimizedAffinity>  (1) 
-5.07703733

>  <minimizedRMSD>  (1) 
2.27206826

$$$$
