
     RDKit          3D

 43 46  0  0  0  0  0  0  0  0999 V2000
   45.6740   34.3220   44.0570 C   0  0  0  0  0  0  0  0  0  0  0  0
   46.6360   34.6690   43.0830 C   0  0  0  0  0  0  0  0  0  0  0  0
   47.7990   33.9300   42.9780 C   0  0  0  0  0  0  0  0  0  0  0  0
   47.9070   32.9140   43.8430 N   0  0  0  0  0  0  0  0  0  0  0  0
   47.0170   32.5800   44.7550 C   0  0  0  0  0  0  0  0  0  0  0  0
   45.8930   33.2930   44.8590 N   0  0  0  0  0  0  0  0  0  0  0  0
   48.8590   34.2100   41.9990 C   0  0  0  0  0  0  0  0  0  0  0  0
   48.4030   35.1940   40.9380 C   0  0  0  0  0  0  0  0  0  0  0  0
   48.6990   34.8650   38.5600 C   0  0  0  0  0  0  0  0  0  0  0  0
   47.9740   34.5300   39.6970 C   0  0  0  0  0  0  0  0  0  0  0  0
   46.9460   33.6240   39.5440 C   0  0  0  0  0  0  0  0  0  0  0  0
   46.6350   33.0650   38.3250 C   0  0  0  0  0  0  0  0  0  0  0  0
   47.3870   33.4290   37.2120 C   0  0  0  0  0  0  0  0  0  0  0  0
   48.4360   34.3390   37.3110 C   0  0  0  0  0  0  0  0  0  0  0  0
   46.8470   32.7090   36.1290 O   0  0  0  0  0  0  0  0  0  0  0  0
   45.5970   32.1560   36.4960 C   0  0  0  0  0  0  0  0  0  0  0  0
   45.6760   32.1540   37.9060 O   0  0  0  0  0  0  0  0  0  0  0  0
   47.1750   31.5200   45.6280 O   0  0  0  0  0  0  0  0  0  0  0  0
   45.5780   30.3310   47.1140 C   0  0  0  0  0  0  0  0  0  0  0  0
   46.4580   31.3240   46.7970 C   0  0  0  0  0  0  0  0  0  0  0  0
   46.6940   32.2990   47.7590 C   0  0  0  0  0  0  0  0  0  0  0  0
   46.0600   32.2640   48.9980 C   0  0  0  0  0  0  0  0  0  0  0  0
   45.1810   31.2480   49.2810 C   0  0  0  0  0  0  0  0  0  0  0  0
   44.9430   30.2740   48.3230 C   0  0  0  0  0  0  0  0  0  0  0  0
   45.3400   29.1510   45.8510 S   0  0  0  0  0  0  0  0  0  0  0  0
   44.7080   29.7630   44.6290 O   0  0  0  0  0  0  0  0  0  0  0  0
   44.3230   28.1380   46.3640 O   0  0  0  0  0  0  0  0  0  0  0  0
   44.7459   34.9053   44.1484 H   0  0  0  0  0  0  0  0  0  0  0  0
   46.4606   35.5226   42.4118 H   0  0  0  0  0  0  0  0  0  0  0  0
   49.7274   34.6321   42.5259 H   0  0  0  0  0  0  0  0  0  0  0  0
   49.1196   33.2656   41.4989 H   0  0  0  0  0  0  0  0  0  0  0  0
   47.5585   35.7754   41.3365 H   0  0  0  0  0  0  0  0  0  0  0  0
   49.2595   35.8389   40.6917 H   0  0  0  0  0  0  0  0  0  0  0  0
   49.5241   35.5856   38.6601 H   0  0  0  0  0  0  0  0  0  0  0  0
   46.3542   33.3381   40.4260 H   0  0  0  0  0  0  0  0  0  0  0  0
   49.0302   34.6267   36.4311 H   0  0  0  0  0  0  0  0  0  0  0  0
   44.7644   32.7827   36.1438 H   0  0  0  0  0  0  0  0  0  0  0  0
   45.4083   31.1629   36.0622 H   0  0  0  0  0  0  0  0  0  0  0  0
   47.3966   33.1156   47.5367 H   0  0  0  0  0  0  0  0  0  0  0  0
   46.2620   33.0454   49.7454 H   0  0  0  0  0  0  0  0  0  0  0  0
   44.6720   31.2071   50.2553 H   0  0  0  0  0  0  0  0  0  0  0  0
   44.2417   29.4539   48.5365 H   0  0  0  0  0  0  0  0  0  0  0  0
   46.5595   28.6145   45.5317 H   0  0  0  0  0  0  0  0  0  0  0  0
  1  6  2  0
  2  1  1  0
  3  2  2  0
  3  4  1  0
  4  5  2  0
  5  6  1  0
  5 18  1  0
  7  3  1  0
  8  7  1  0
  9 10  2  0
 10  8  1  0
 11 10  1  0
 12 11  2  0
 13 14  2  0
 13 12  1  0
 14  9  1  0
 15 16  1  0
 15 13  1  0
 16 17  1  0
 17 12  1  0
 18 20  1  0
 19 24  2  0
 20 19  1  0
 20 21  2  0
 21 22  1  0
 22 23  2  0
 24 23  1  0
 25 27  2  0
 25 19  1  0
 26 25  2  0
  1 28  1  0
  2 29  1  0
  7 30  1  0
  7 31  1  0
  8 32  1  0
  8 33  1  0
  9 34  1  0
 11 35  1  0
 14 36  1  0
 16 37  1  0
 16 38  1  0
 21 39  1  0
 22 40  1  0
 23 41  1  0
 24 42  1  0
 25 43  1  0
M  ISO  8  28  14  29  14  30   8  31   8  32   8  33   8  34  14  35  14
M  ISO  8  36  14  37  13  38  13  39  14  40  14  41  14  42  14  43  11
M  END
>  <minimizedAffinity>  (1) 
-6.05668211

>  <minimizedRMSD>  (1) 
1.85665345

$$$$
