
     RDKit          3D

 39 41  0  0  0  0  0  0  0  0999 V2000
   44.5910   35.3070   45.1620 C   0  0  0  0  0  0  0  0  0  0  0  0
   44.9870   35.4950   43.8280 C   0  0  0  0  0  0  0  0  0  0  0  0
   46.0390   34.7540   43.3240 C   0  0  0  0  0  0  0  0  0  0  0  0
   46.6270   33.8820   44.1620 N   0  0  0  0  0  0  0  0  0  0  0  0
   46.2580   33.7020   45.4170 C   0  0  0  0  0  0  0  0  0  0  0  0
   45.2320   34.4200   45.9190 N   0  0  0  0  0  0  0  0  0  0  0  0
   46.5200   34.8910   41.9290 C   0  0  0  0  0  0  0  0  0  0  0  0
   46.4930   33.5720   41.1950 C   0  0  0  0  0  0  0  0  0  0  0  0
   46.8570   33.6590   39.7860 C   0  0  0  0  0  0  0  0  0  0  0  0
   48.0140   34.3190   39.4110 C   0  0  0  0  0  0  0  0  0  0  0  0
   48.4490   34.4570   38.1030 C   0  0  0  0  0  0  0  0  0  0  0  0
   47.5980   33.8590   37.1810 C   0  0  0  0  0  0  0  0  0  0  0  0
   46.4420   33.1930   37.4890 C   0  0  0  0  0  0  0  0  0  0  0  0
   46.1160   33.1200   38.8040 N   0  0  0  0  0  0  0  0  0  0  0  0
   46.8550   32.8130   46.2780 O   0  0  0  0  0  0  0  0  0  0  0  0
   45.6950   30.6870   46.8160 C   0  0  0  0  0  0  0  0  0  0  0  0
   46.2150   31.9180   47.1150 C   0  0  0  0  0  0  0  0  0  0  0  0
   46.1050   32.3570   48.4190 C   0  0  0  0  0  0  0  0  0  0  0  0
   45.4930   31.5940   49.4000 C   0  0  0  0  0  0  0  0  0  0  0  0
   44.9770   30.3630   49.0820 C   0  0  0  0  0  0  0  0  0  0  0  0
   45.0860   29.9180   47.7740 C   0  0  0  0  0  0  0  0  0  0  0  0
   45.8720   30.2010   45.1530 S   0  0  0  0  0  0  0  0  0  0  0  0
   44.6730   29.4140   44.6680 O   0  0  0  0  0  0  0  0  0  0  0  0
   47.0460   29.2360   45.0770 O   0  0  0  0  0  0  0  0  0  0  0  0
   43.7560   35.8894   45.5787 H   0  0  0  0  0  0  0  0  0  0  0  0
   44.4654   36.2244   43.1909 H   0  0  0  0  0  0  0  0  0  0  0  0
   45.8750   35.6070   41.3986 H   0  0  0  0  0  0  0  0  0  0  0  0
   47.5613   35.2444   41.9593 H   0  0  0  0  0  0  0  0  0  0  0  0
   47.1976   32.8880   41.6907 H   0  0  0  0  0  0  0  0  0  0  0  0
   45.4530   33.2152   41.2290 H   0  0  0  0  0  0  0  0  0  0  0  0
   48.6304   34.7645   40.2057 H   0  0  0  0  0  0  0  0  0  0  0  0
   49.3724   34.9852   37.8230 H   0  0  0  0  0  0  0  0  0  0  0  0
   47.8755   33.9262   36.1187 H   0  0  0  0  0  0  0  0  0  0  0  0
   45.8102   32.7405   36.7105 H   0  0  0  0  0  0  0  0  0  0  0  0
   46.5154   33.3417   48.6871 H   0  0  0  0  0  0  0  0  0  0  0  0
   45.4210   31.9735   50.4299 H   0  0  0  0  0  0  0  0  0  0  0  0
   44.4878   29.7433   49.8480 H   0  0  0  0  0  0  0  0  0  0  0  0
   44.6781   28.9337   47.5005 H   0  0  0  0  0  0  0  0  0  0  0  0
   46.0298   31.3326   44.3970 H   0  0  0  0  0  0  0  0  0  0  0  0
  1  6  2  0
  2  1  1  0
  3  2  2  0
  3  4  1  0
  4  5  2  0
  5  6  1  0
  5 15  1  0
  7  3  1  0
  8  7  1  0
  9  8  1  0
 10  9  2  0
 11 10  1  0
 12 13  1  0
 12 11  2  0
 13 14  2  0
 14  9  1  0
 15 17  1  0
 16 17  2  0
 16 21  1  0
 17 18  1  0
 18 19  2  0
 20 19  1  0
 21 20  2  0
 22 16  1  0
 23 22  2  0
 24 22  2  0
  1 25  1  0
  2 26  1  0
  7 27  1  0
  7 28  1  0
  8 29  1  0
  8 30  1  0
 10 31  1  0
 11 32  1  0
 12 33  1  0
 13 34  1  0
 18 35  1  0
 19 36  1  0
 20 37  1  0
 21 38  1  0
 22 39  1  0
M  ISO  8  25  14  26  14  27   8  28   8  29   8  30   8  31  14  32  14
M  ISO  7  33  14  34  14  35  14  36  14  37  14  38  14  39  11
M  END
>  <minimizedAffinity>  (1) 
-5.9091239

>  <minimizedRMSD>  (1) 
2.27608228

$$$$
