
     RDKit          3D

 37 38  0  0  0  0  0  0  0  0999 V2000
   45.3010   34.2720   43.7540 C   0  0  0  0  0  0  0  0  0  0  0  0
   46.4690   34.7730   43.1340 C   0  0  0  0  0  0  0  0  0  0  0  0
   47.6610   34.0850   43.2640 C   0  0  0  0  0  0  0  0  0  0  0  0
   47.5910   32.9680   43.9940 N   0  0  0  0  0  0  0  0  0  0  0  0
   46.5130   32.4900   44.5770 C   0  0  0  0  0  0  0  0  0  0  0  0
   45.3540   33.1500   44.4560 N   0  0  0  0  0  0  0  0  0  0  0  0
   48.9400   34.5060   42.6670 C   0  0  0  0  0  0  0  0  0  0  0  0
   48.7490   35.6900   41.7200 C   0  0  0  0  0  0  0  0  0  0  0  0
   48.6080   35.2170   40.3180 C   0  0  0  0  0  0  0  0  0  0  0  0
   48.0750   34.3390   39.4800 C   0  0  0  0  0  0  0  0  0  0  0  0
   48.2180   34.2270   38.0030 C   0  0  0  0  0  0  0  0  0  0  0  0
   46.5020   31.3230   45.3230 O   0  0  0  0  0  0  0  0  0  0  0  0
   45.4000   30.2010   47.2480 C   0  0  0  0  0  0  0  0  0  0  0  0
   46.0750   31.2130   46.6340 C   0  0  0  0  0  0  0  0  0  0  0  0
   46.4020   32.3170   47.4120 C   0  0  0  0  0  0  0  0  0  0  0  0
   46.0700   32.4160   48.7530 C   0  0  0  0  0  0  0  0  0  0  0  0
   45.3820   31.3670   49.3460 C   0  0  0  0  0  0  0  0  0  0  0  0
   45.0510   30.2600   48.5780 C   0  0  0  0  0  0  0  0  0  0  0  0
   45.0250   28.8480   46.2080 S   0  0  0  0  0  0  0  0  0  0  0  0
   43.5380   28.7540   45.9420 O   0  0  0  0  0  0  0  0  0  0  0  0
   45.3780   27.5790   46.9680 O   0  0  0  0  0  0  0  0  0  0  0  0
   44.3490   34.8137   43.6534 H   0  0  0  0  0  0  0  0  0  0  0  0
   46.4293   35.7052   42.5514 H   0  0  0  0  0  0  0  0  0  0  0  0
   49.6314   34.7984   43.4710 H   0  0  0  0  0  0  0  0  0  0  0  0
   49.3475   33.6628   42.0900 H   0  0  0  0  0  0  0  0  0  0  0  0
   47.8425   36.2421   42.0088 H   0  0  0  0  0  0  0  0  0  0  0  0
   49.6296   36.3457   41.7877 H   0  0  0  0  0  0  0  0  0  0  0  0
   49.2154   35.8973   39.7030 H   0  0  0  0  0  0  0  0  0  0  0  0
   47.4304   33.5794   39.9463 H   0  0  0  0  0  0  0  0  0  0  0  0
   49.0636   33.5647   37.7657 H   0  0  0  0  0  0  0  0  0  0  0  0
   47.2942   33.8097   37.5758 H   0  0  0  0  0  0  0  0  0  0  0  0
   48.4019   35.2238   37.5758 H   0  0  0  0  0  0  0  0  0  0  0  0
   46.9482   33.1484   46.9424 H   0  0  0  0  0  0  0  0  0  0  0  0
   46.3459   33.3073   49.3356 H   0  0  0  0  0  0  0  0  0  0  0  0
   45.1032   31.4124   50.4091 H   0  0  0  0  0  0  0  0  0  0  0  0
   44.5049   29.4222   49.0361 H   0  0  0  0  0  0  0  0  0  0  0  0
   45.7103   29.0043   45.0321 H   0  0  0  0  0  0  0  0  0  0  0  0
  1  6  2  0
  2  3  2  0
  2  1  1  0
  3  4  1  0
  4  5  2  0
  5 12  1  0
  6  5  1  0
  7  3  1  0
  8  7  1  0
  9  8  1  0
 10  9  2  0
 11 10  1  0
 12 14  1  0
 13 18  2  0
 14 13  1  0
 14 15  2  0
 15 16  1  0
 16 17  2  0
 18 17  1  0
 19 21  2  0
 19 13  1  0
 20 19  2  0
  1 22  1  0
  2 23  1  0
  7 24  1  0
  7 25  1  0
  8 26  1  0
  8 27  1  0
  9 28  1  0
 10 29  1  0
 11 30  1  0
 11 31  1  0
 11 32  1  0
 15 33  1  0
 16 34  1  0
 17 35  1  0
 18 36  1  0
 19 37  1  0
M  ISO  8  22  14  23  14  24   8  25   8  26   8  27   8  30   8  31   8
M  ISO  6  32   8  33  14  34  14  35  14  36  14  37  11
M  END
>  <minimizedAffinity>  (1) 
-5.5631938

>  <minimizedRMSD>  (1) 
1.25324643

$$$$
