
     RDKit          3D

 47 49  0  0  0  0  0  0  0  0999 V2000
   45.4610   30.1770   47.2970 C   0  0  0  0  0  0  0  0  0  0  0  0
   46.0530   31.2400   46.7070 C   0  0  0  0  0  0  0  0  0  0  0  0
   46.2570   32.3790   47.4650 C   0  0  0  0  0  0  0  0  0  0  0  0
   45.8850   32.4710   48.7870 C   0  0  0  0  0  0  0  0  0  0  0  0
   45.2830   31.3800   49.3770 C   0  0  0  0  0  0  0  0  0  0  0  0
   45.0770   30.2370   48.6200 C   0  0  0  0  0  0  0  0  0  0  0  0
   45.1390   28.8110   46.2620 S   0  0  0  0  0  0  0  0  0  0  0  0
   44.2340   29.0910   45.1410 O   0  0  0  0  0  0  0  0  0  0  0  0
   44.3700   27.8020   47.1500 O   0  0  0  0  0  0  0  0  0  0  0  0
   46.5780   27.8780   45.9010 C   0  0  0  0  0  0  0  0  0  0  0  0
   46.8120   27.1430   44.7560 C   0  0  0  0  0  0  0  0  0  0  0  0
   47.9870   26.4450   44.5630 C   0  0  0  0  0  0  0  0  0  0  0  0
   48.9890   26.4480   45.5110 C   0  0  0  0  0  0  0  0  0  0  0  0
   48.8200   27.1560   46.6710 C   0  0  0  0  0  0  0  0  0  0  0  0
   47.6330   27.8380   46.8210 C   0  0  0  0  0  0  0  0  0  0  0  0
   46.5030   31.3490   45.3970 O   0  0  0  0  0  0  0  0  0  0  0  0
   45.3060   34.2480   43.7870 C   0  0  0  0  0  0  0  0  0  0  0  0
   46.4650   34.7440   43.1540 C   0  0  0  0  0  0  0  0  0  0  0  0
   47.6500   34.0700   43.2920 C   0  0  0  0  0  0  0  0  0  0  0  0
   47.6120   32.9560   44.0420 N   0  0  0  0  0  0  0  0  0  0  0  0
   46.5260   32.4920   44.6340 C   0  0  0  0  0  0  0  0  0  0  0  0
   45.3710   33.1370   44.5080 N   0  0  0  0  0  0  0  0  0  0  0  0
   48.9080   34.4820   42.6620 C   0  0  0  0  0  0  0  0  0  0  0  0
   48.7350   35.6430   41.7320 C   0  0  0  0  0  0  0  0  0  0  0  0
   48.6120   35.2640   40.3260 C   0  0  0  0  0  0  0  0  0  0  0  0
   48.0490   34.3530   39.5410 C   0  0  0  0  0  0  0  0  0  0  0  0
   48.2250   34.2010   38.0430 C   0  0  0  0  0  0  0  0  0  0  0  0
   46.7369   33.2480   46.9912 H   0  0  0  0  0  0  0  0  0  0  0  0
   46.0638   33.3932   49.3593 H   0  0  0  0  0  0  0  0  0  0  0  0
   44.9712   31.4159   50.4313 H   0  0  0  0  0  0  0  0  0  0  0  0
   44.5983   29.3617   49.0834 H   0  0  0  0  0  0  0  0  0  0  0  0
   46.0389   27.1127   43.9741 H   0  0  0  0  0  0  0  0  0  0  0  0
   48.1274   25.8741   43.6333 H   0  0  0  0  0  0  0  0  0  0  0  0
   49.9179   25.8853   45.3363 H   0  0  0  0  0  0  0  0  0  0  0  0
   49.5978   27.1789   47.4484 H   0  0  0  0  0  0  0  0  0  0  0  0
   47.5008   28.4062   47.7536 H   0  0  0  0  0  0  0  0  0  0  0  0
   44.3500   34.7819   43.6827 H   0  0  0  0  0  0  0  0  0  0  0  0
   46.4178   35.6649   42.5542 H   0  0  0  0  0  0  0  0  0  0  0  0
   49.6202   34.7659   43.4508 H   0  0  0  0  0  0  0  0  0  0  0  0
   49.2763   33.6324   42.0682 H   0  0  0  0  0  0  0  0  0  0  0  0
   47.8253   36.1880   42.0244 H   0  0  0  0  0  0  0  0  0  0  0  0
   49.6428   36.2582   41.8180 H   0  0  0  0  0  0  0  0  0  0  0  0
   49.1787   35.9756   39.7075 H   0  0  0  0  0  0  0  0  0  0  0  0
   47.3816   33.6291   40.0315 H   0  0  0  0  0  0  0  0  0  0  0  0
   49.0432   33.4944   37.8398 H   0  0  0  0  0  0  0  0  0  0  0  0
   47.2927   33.8194   37.6011 H   0  0  0  0  0  0  0  0  0  0  0  0
   48.4668   35.1789   37.6011 H   0  0  0  0  0  0  0  0  0  0  0  0
  1  6  2  0
  2  1  1  0
  2  3  2  0
  3  4  1  0
  4  5  2  0
  6  5  1  0
  7  9  2  0
  7  1  1  0
  8  7  2  0
 10  7  1  0
 10 15  1  0
 11 10  2  0
 12 11  1  0
 12 13  2  0
 13 14  1  0
 14 15  2  0
 16  2  1  0
 17 22  2  0
 18 19  2  0
 18 17  1  0
 19 20  1  0
 20 21  2  0
 21 16  1  0
 22 21  1  0
 23 19  1  0
 24 23  1  0
 25 24  1  0
 26 25  2  0
 27 26  1  0
  3 28  1  0
  4 29  1  0
  5 30  1  0
  6 31  1  0
 11 32  1  0
 12 33  1  0
 13 34  1  0
 14 35  1  0
 15 36  1  0
 17 37  1  0
 18 38  1  0
 23 39  1  0
 23 40  1  0
 24 41  1  0
 24 42  1  0
 25 43  1  0
 26 44  1  0
 27 45  1  0
 27 46  1  0
 27 47  1  0
M  ISO  8  28  14  29  14  30  14  31  14  32  14  33  14  34  14  35  14
M  ISO  8  36  14  37  14  38  14  39   8  40   8  41   8  42   8  45   8
M  ISO  2  46   8  47   8
M  END
>  <minimizedAffinity>  (1) 
-5.56809425

>  <minimizedRMSD>  (1) 
1.32353234

$$$$
