
     RDKit          3D

 44 46  0  0  0  0  0  0  0  0999 V2000
   45.3090   34.2510   43.7700 C   0  0  0  0  0  0  0  0  0  0  0  0
   46.4710   34.7530   43.1490 C   0  0  0  0  0  0  0  0  0  0  0  0
   47.6560   34.0800   43.2900 C   0  0  0  0  0  0  0  0  0  0  0  0
   47.6120   32.9650   44.0300 N   0  0  0  0  0  0  0  0  0  0  0  0
   46.5330   32.4890   44.6120 C   0  0  0  0  0  0  0  0  0  0  0  0
   45.3730   33.1330   44.4850 N   0  0  0  0  0  0  0  0  0  0  0  0
   48.9150   34.5060   42.6700 C   0  0  0  0  0  0  0  0  0  0  0  0
   48.7390   35.6660   41.7330 C   0  0  0  0  0  0  0  0  0  0  0  0
   48.6100   35.2670   40.3330 C   0  0  0  0  0  0  0  0  0  0  0  0
   48.0400   34.3540   39.5580 C   0  0  0  0  0  0  0  0  0  0  0  0
   48.2300   34.1820   38.0650 C   0  0  0  0  0  0  0  0  0  0  0  0
   46.5010   31.3410   45.3680 O   0  0  0  0  0  0  0  0  0  0  0  0
   45.4710   30.1630   47.2740 C   0  0  0  0  0  0  0  0  0  0  0  0
   46.0560   31.2300   46.6790 C   0  0  0  0  0  0  0  0  0  0  0  0
   46.2570   32.3680   47.4410 C   0  0  0  0  0  0  0  0  0  0  0  0
   45.8900   32.4570   48.7630 C   0  0  0  0  0  0  0  0  0  0  0  0
   45.2970   31.3630   49.3530 C   0  0  0  0  0  0  0  0  0  0  0  0
   45.0930   30.2180   48.5960 C   0  0  0  0  0  0  0  0  0  0  0  0
   45.1370   28.8010   46.2320 S   0  0  0  0  0  0  0  0  0  0  0  0
   44.2340   29.1030   45.1080 O   0  0  0  0  0  0  0  0  0  0  0  0
   44.3550   27.8020   47.1150 O   0  0  0  0  0  0  0  0  0  0  0  0
   46.5820   27.8450   45.8600 C   0  0  0  0  0  0  0  0  0  0  0  0
   46.9060   26.7170   46.7410 C   0  0  0  0  0  0  0  0  0  0  0  0
   47.6550   27.9820   46.9350 C   0  0  0  0  0  0  0  0  0  0  0  0
   44.3524   34.7833   43.6629 H   0  0  0  0  0  0  0  0  0  0  0  0
   46.4265   35.6782   42.5557 H   0  0  0  0  0  0  0  0  0  0  0  0
   49.6165   34.7996   43.4648 H   0  0  0  0  0  0  0  0  0  0  0  0
   49.2970   33.6594   42.0807 H   0  0  0  0  0  0  0  0  0  0  0  0
   47.8312   36.2148   42.0242 H   0  0  0  0  0  0  0  0  0  0  0  0
   49.6435   36.2870   41.8116 H   0  0  0  0  0  0  0  0  0  0  0  0
   49.1837   35.9648   39.7053 H   0  0  0  0  0  0  0  0  0  0  0  0
   47.3571   33.6469   40.0516 H   0  0  0  0  0  0  0  0  0  0  0  0
   49.0338   33.4544   37.8791 H   0  0  0  0  0  0  0  0  0  0  0  0
   47.2943   33.8175   37.6159 H   0  0  0  0  0  0  0  0  0  0  0  0
   48.4999   35.1492   37.6159 H   0  0  0  0  0  0  0  0  0  0  0  0
   46.7316   33.2402   46.9676 H   0  0  0  0  0  0  0  0  0  0  0  0
   46.0658   33.3797   49.3356 H   0  0  0  0  0  0  0  0  0  0  0  0
   44.9896   31.3963   50.4087 H   0  0  0  0  0  0  0  0  0  0  0  0
   44.6212   29.3396   49.0605 H   0  0  0  0  0  0  0  0  0  0  0  0
   46.5034   27.9455   44.7674 H   0  0  0  0  0  0  0  0  0  0  0  0
   46.1787   26.3939   47.5004 H   0  0  0  0  0  0  0  0  0  0  0  0
   47.2025   25.6721   46.5673 H   0  0  0  0  0  0  0  0  0  0  0  0
   48.7165   28.0465   46.6538 H   0  0  0  0  0  0  0  0  0  0  0  0
   47.8430   28.6643   47.7771 H   0  0  0  0  0  0  0  0  0  0  0  0
  1  6  2  0
  2  3  2  0
  2  1  1  0
  3  4  1  0
  4  5  2  0
  5 12  1  0
  6  5  1  0
  7  3  1  0
  8  7  1  0
  9  8  1  0
 10  9  2  0
 11 10  1  0
 12 14  1  0
 13 18  2  0
 14 13  1  0
 14 15  2  0
 15 16  1  0
 16 17  2  0
 18 17  1  0
 19 21  2  0
 19 13  1  0
 20 19  2  0
 22 19  1  0
 22 23  1  0
 22 24  1  0
 23 24  1  0
  1 25  1  0
  2 26  1  0
  7 27  1  0
  7 28  1  0
  8 29  1  0
  8 30  1  0
  9 31  1  0
 10 32  1  0
 11 33  1  0
 11 34  1  0
 11 35  1  0
 15 36  1  0
 16 37  1  0
 17 38  1  0
 18 39  1  0
 22 40  1  0
 23 41  1  0
 23 42  1  0
 24 43  1  0
 24 44  1  0
M  ISO  8  25  14  26  14  27   8  28   8  29   8  30   8  33   8  34   8
M  ISO  8  35   8  36  14  37  14  38  14  39  14  40  13  41  13  42  13
M  ISO  2  43  13  44  13
M  END
>  <minimizedAffinity>  (1) 
-5.53419638

>  <minimizedRMSD>  (1) 
0.74352926

$$$$
