
     RDKit          3D

 16 16  0  0  0  0  0  0  0  0999 V2000
   45.1830   35.2200   44.0530 C   0  0  0  0  0  0  0  0  0  0  0  0
   46.2310   34.5740   43.3750 C   0  0  0  0  0  0  0  0  0  0  0  0
   46.9150   33.5530   44.0630 C   0  0  0  0  0  0  0  0  0  0  0  0
   46.5180   33.2640   45.3290 N   0  0  0  0  0  0  0  0  0  0  0  0
   45.5080   33.9070   45.9420 C   0  0  0  0  0  0  0  0  0  0  0  0
   44.8380   34.8870   45.3030 N   0  0  0  0  0  0  0  0  0  0  0  0
   46.5450   34.9940   42.0140 C   0  0  0  0  0  0  0  0  0  0  0  0
   48.0580   35.1870   41.9270 C   0  0  0  0  0  0  0  0  0  0  0  0
   44.6304   36.0222   43.5420 H   0  0  0  0  0  0  0  0  0  0  0  0
   47.7445   33.0070   43.5898 H   0  0  0  0  0  0  0  0  0  0  0  0
   45.2274   33.6320   46.9694 H   0  0  0  0  0  0  0  0  0  0  0  0
   46.2238   34.2216   41.2997 H   0  0  0  0  0  0  0  0  0  0  0  0
   46.0217   35.9298   41.7683 H   0  0  0  0  0  0  0  0  0  0  0  0
   48.4797   35.2408   42.9415 H   0  0  0  0  0  0  0  0  0  0  0  0
   48.5055   34.3387   41.3884 H   0  0  0  0  0  0  0  0  0  0  0  0
   48.2782   36.1205   41.3884 H   0  0  0  0  0  0  0  0  0  0  0  0
  1  6  2  0
  2  1  1  0
  2  3  2  0
  3  4  1  0
  4  5  2  0
  6  5  1  0
  7  2  1  0
  8  7  1  0
  1  9  1  0
  3 10  1  0
  5 11  1  0
  7 12  1  0
  7 13  1  0
  8 14  1  0
  8 15  1  0
  8 16  1  0
M  ISO  8   9  14  10  14  11  14  12   8  13   8  14   8  15   8  16   8
M  END
>  <minimizedAffinity>  (1) 
-3.02021933

>  <minimizedRMSD>  (1) 
1.28404307

$$$$
