
     RDKit          3D

 31 32  0  0  0  0  0  0  0  0999 V2000
   46.9020   32.7840   44.8850 C   0  0  0  0  0  0  0  0  0  0  0  0
   45.2230   34.5750   45.0780 C   0  0  0  0  0  0  0  0  0  0  0  0
   46.2650   33.9650   44.3460 C   0  0  0  0  0  0  0  0  0  0  0  0
   46.6020   34.5640   43.1270 C   0  0  0  0  0  0  0  0  0  0  0  0
   45.9290   35.6730   42.7170 N   0  0  0  0  0  0  0  0  0  0  0  0
   44.9430   36.2070   43.4600 C   0  0  0  0  0  0  0  0  0  0  0  0
   44.5880   35.6580   44.6440 N   0  0  0  0  0  0  0  0  0  0  0  0
   46.7090   32.7970   46.3900 C   0  0  0  0  0  0  0  0  0  0  0  0
   45.6380   31.8680   46.7930 N   0  0  0  0  0  0  0  0  0  0  0  0
   45.1560   32.3730   48.0590 C   0  0  0  0  0  0  0  0  0  0  0  0
   45.7290   31.6480   49.2550 C   0  0  0  0  0  0  0  0  0  0  0  0
   45.1350   30.2510   49.1670 C   0  0  0  0  0  0  0  0  0  0  0  0
   45.5980   29.6360   47.8980 C   0  0  0  0  0  0  0  0  0  0  0  0
   46.1640   30.5410   46.8680 C   0  0  0  0  0  0  0  0  0  0  0  0
   47.9756   32.7959   44.6456 H   0  0  0  0  0  0  0  0  0  0  0  0
   46.4588   31.8764   44.4492 H   0  0  0  0  0  0  0  0  0  0  0  0
   44.9263   34.1375   46.0427 H   0  0  0  0  0  0  0  0  0  0  0  0
   47.4049   34.1414   42.5051 H   0  0  0  0  0  0  0  0  0  0  0  0
   44.4176   37.1036   43.0993 H   0  0  0  0  0  0  0  0  0  0  0  0
   47.6486   32.4953   46.8758 H   0  0  0  0  0  0  0  0  0  0  0  0
   46.4252   33.8141   46.6983 H   0  0  0  0  0  0  0  0  0  0  0  0
   45.4254   33.4368   48.1348 H   0  0  0  0  0  0  0  0  0  0  0  0
   44.0674   32.2160   48.0766 H   0  0  0  0  0  0  0  0  0  0  0  0
   46.8268   31.6090   49.1979 H   0  0  0  0  0  0  0  0  0  0  0  0
   45.4884   32.1481   50.2047 H   0  0  0  0  0  0  0  0  0  0  0  0
   45.4746   29.6463   50.0208 H   0  0  0  0  0  0  0  0  0  0  0  0
   44.0363   30.3003   49.1897 H   0  0  0  0  0  0  0  0  0  0  0  0
   46.3741   28.8991   48.1523 H   0  0  0  0  0  0  0  0  0  0  0  0
   44.6891   29.2203   47.4386 H   0  0  0  0  0  0  0  0  0  0  0  0
   46.0025   30.0670   45.8886 H   0  0  0  0  0  0  0  0  0  0  0  0
   47.2163   30.6733   47.1597 H   0  0  0  0  0  0  0  0  0  0  0  0
  1  8  1  0
  3  1  1  0
  3  2  2  0
  4  3  1  0
  5  4  2  0
  5  6  1  0
  6  7  2  0
  7  2  1  0
  8  9  1  0
  9 14  1  0
  9 10  1  0
 10 11  1  0
 12 11  1  0
 13 12  1  0
 14 13  1  0
  1 15  1  0
  1 16  1  0
  2 17  1  0
  4 18  1  0
  6 19  1  0
  8 20  1  0
  8 21  1  0
 10 22  1  0
 10 23  1  0
 11 24  1  0
 11 25  1  0
 12 26  1  0
 12 27  1  0
 13 28  1  0
 13 29  1  0
 14 30  1  0
 14 31  1  0
M  ISO  8  15   8  16   8  17  14  18  14  19  14  20   8  21   8  22  13
M  ISO  8  23  13  24  13  25  13  26  13  27  13  28  13  29  13  30  13
M  ISO  1  31  13
M  END
>  <minimizedAffinity>  (1) 
-4.45221567

>  <minimizedRMSD>  (1) 
6.98341179

$$$$
