
     RDKit          3D

 26 27  0  0  0  0  0  0  0  0999 V2000
   46.9330   34.9410   41.8540 C   0  0  0  0  0  0  0  0  0  0  0  0
   45.3180   36.0850   43.2900 C   0  0  0  0  0  0  0  0  0  0  0  0
   46.1680   34.9880   43.0890 C   0  0  0  0  0  0  0  0  0  0  0  0
   46.2100   34.0280   44.0990 C   0  0  0  0  0  0  0  0  0  0  0  0
   45.4290   34.2200   45.2000 N   0  0  0  0  0  0  0  0  0  0  0  0
   44.6280   35.2880   45.3500 C   0  0  0  0  0  0  0  0  0  0  0  0
   44.5720   36.2300   44.3870 N   0  0  0  0  0  0  0  0  0  0  0  0
   47.1710   33.4820   41.5110 C   0  0  0  0  0  0  0  0  0  0  0  0
   47.9110   31.4140   39.5140 Cl  0  0  0  0  0  0  0  0  0  0  0  0
   48.9840   32.2050   40.6680 C   0  0  0  0  0  0  0  0  0  0  0  0
   48.6350   33.1790   41.6000 C   0  0  0  0  0  0  0  0  0  0  0  0
   49.5940   33.6970   42.4250 C   0  0  0  0  0  0  0  0  0  0  0  0
   50.8910   33.2470   42.3220 C   0  0  0  0  0  0  0  0  0  0  0  0
   51.2560   32.2840   41.4050 C   0  0  0  0  0  0  0  0  0  0  0  0
   50.3010   31.7520   40.5660 C   0  0  0  0  0  0  0  0  0  0  0  0
   46.3685   35.4282   41.0454 H   0  0  0  0  0  0  0  0  0  0  0  0
   47.8907   35.4684   41.9749 H   0  0  0  0  0  0  0  0  0  0  0  0
   45.2638   36.8590   42.5103 H   0  0  0  0  0  0  0  0  0  0  0  0
   46.8547   33.1411   44.0102 H   0  0  0  0  0  0  0  0  0  0  0  0
   44.0175   35.3940   46.2589 H   0  0  0  0  0  0  0  0  0  0  0  0
   46.8173   33.2836   40.4885 H   0  0  0  0  0  0  0  0  0  0  0  0
   46.6217   32.8451   42.2199 H   0  0  0  0  0  0  0  0  0  0  0  0
   49.3315   34.4672   43.1652 H   0  0  0  0  0  0  0  0  0  0  0  0
   51.6574   33.6673   42.9898 H   0  0  0  0  0  0  0  0  0  0  0  0
   52.3002   31.9435   41.3438 H   0  0  0  0  0  0  0  0  0  0  0  0
   50.5718   30.9828   39.8277 H   0  0  0  0  0  0  0  0  0  0  0  0
  1  3  1  0
  2  7  2  0
  3  2  1  0
  3  4  2  0
  4  5  1  0
  5  6  2  0
  7  6  1  0
  8 11  1  0
  8  1  1  0
  9 10  1  0
 10 11  2  0
 11 12  1  0
 13 12  2  0
 14 13  1  0
 15 10  1  0
 15 14  2  0
  1 16  1  0
  1 17  1  0
  2 18  1  0
  4 19  1  0
  6 20  1  0
  8 21  1  0
  8 22  1  0
 12 23  1  0
 13 24  1  0
 14 25  1  0
 15 26  1  0
M  ISO  8  16   8  17   8  18  14  19  14  20  14  21   8  22   8  23  14
M  ISO  3  24  14  25  14  26  14
M  END
>  <minimizedAffinity>  (1) 
-4.43126535

>  <minimizedRMSD>  (1) 
3.12641788

$$$$
