
     RDKit          3D

 18 18  0  0  0  0  0  0  0  0999 V2000
   45.3140   35.9700   43.1490 C   0  0  0  0  0  0  0  0  0  0  0  0
   46.1680   34.8870   42.9690 C   0  0  0  0  0  0  0  0  0  0  0  0
   46.2710   33.9670   44.0130 C   0  0  0  0  0  0  0  0  0  0  0  0
   45.5340   34.1780   45.1400 N   0  0  0  0  0  0  0  0  0  0  0  0
   44.7140   35.2460   45.2750 C   0  0  0  0  0  0  0  0  0  0  0  0
   44.6030   36.1420   44.2800 N   0  0  0  0  0  0  0  0  0  0  0  0
   46.8850   34.7790   41.7240 C   0  0  0  0  0  0  0  0  0  0  0  0
   48.2920   35.3100   41.9160 C   0  0  0  0  0  0  0  0  0  0  0  0
   48.9110   35.5760   40.6350 N   0  0  0  0  0  0  0  0  0  0  0  0
   45.2161   36.7103   42.3413 H   0  0  0  0  0  0  0  0  0  0  0  0
   46.9317   33.0916   43.9285 H   0  0  0  0  0  0  0  0  0  0  0  0
   44.1369   35.3809   46.2017 H   0  0  0  0  0  0  0  0  0  0  0  0
   46.3710   35.3682   40.9503 H   0  0  0  0  0  0  0  0  0  0  0  0
   46.9254   33.7258   41.4090 H   0  0  0  0  0  0  0  0  0  0  0  0
   48.2511   36.2419   42.4991 H   0  0  0  0  0  0  0  0  0  0  0  0
   48.8880   34.5553   42.4500 H   0  0  0  0  0  0  0  0  0  0  0  0
   49.8475   35.9784   40.7832 H   0  0  0  0  0  0  0  0  0  0  0  0
   48.9950   34.6968   40.1051 H   0  0  0  0  0  0  0  0  0  0  0  0
  1  6  2  0
  2  1  1  0
  2  3  2  0
  3  4  1  0
  4  5  2  0
  6  5  1  0
  7  8  1  0
  7  2  1  0
  9  8  1  0
  1 10  1  0
  3 11  1  0
  5 12  1  0
  7 13  1  0
  7 14  1  0
  8 15  1  0
  8 16  1  0
  9 17  1  0
  9 18  1  0
M  ISO  8  10  14  11  14  12  14  13   8  14   8  15   8  16   8  17   5
M  ISO  1  18   5
M  END
>  <minimizedAffinity>  (1) 
-3.66138673

>  <minimizedRMSD>  (1) 
1.30525923

$$$$
