
     RDKit          3D

 46 48  0  0  1  0  0  0  0  0999 V2000
   46.2410   31.8900   46.0060 C   0  0  0  0  0  0  0  0  0  0  0  0
   47.7110   31.9070   48.0150 C   0  0  0  0  0  0  0  0  0  0  0  0
   47.2770   31.2810   46.8250 C   0  0  0  0  0  0  0  0  0  0  0  0
   47.9000   30.0670   46.4990 C   0  0  0  0  0  0  0  0  0  0  0  0
   48.8550   29.5700   47.3120 N   0  0  0  0  0  0  0  0  0  0  0  0
   49.2400   30.2010   48.4400 C   0  0  0  0  0  0  0  0  0  0  0  0
   48.6710   31.3530   48.7800 N   0  0  0  0  0  0  0  0  0  0  0  0
   49.7850   29.7780   50.7420 C   0  0  1  0  0  0  0  0  0  0  0  0
   50.2950   29.6400   49.3260 C   0  0  2  0  0  0  0  0  0  0  0  0
   51.5320   30.1750   49.1310 O   0  0  0  0  0  0  0  0  0  0  0  0
   52.3160   30.2830   50.2510 C   0  0  0  0  0  0  0  0  0  0  0  0
   52.1210   29.2130   51.2870 C   0  0  2  0  0  0  0  0  0  0  0  0
   50.6860   28.9730   51.6450 C   0  0  1  0  0  0  0  0  0  0  0  0
   49.7450   31.1140   51.0550 O   0  0  0  0  0  0  0  0  0  0  0  0
   52.7880   29.6350   52.4380 O   0  0  0  0  0  0  0  0  0  0  0  0
   50.3570   29.2390   52.9530 O   0  0  0  0  0  0  0  0  0  0  0  0
   46.9280   32.7270   44.9480 C   0  0  0  0  0  0  0  0  0  0  0  0
   46.4810   34.5290   43.3320 C   0  0  0  0  0  0  0  0  0  0  0  0
   46.1910   33.9320   44.5430 C   0  0  0  0  0  0  0  0  0  0  0  0
   45.2350   34.4050   45.4010 C   0  0  0  0  0  0  0  0  0  0  0  0
   44.5300   35.5310   45.0390 C   0  0  0  0  0  0  0  0  0  0  0  0
   44.7520   36.1860   43.8580 C   0  0  0  0  0  0  0  0  0  0  0  0
   45.7390   35.6470   43.0350 C   0  0  0  0  0  0  0  0  0  0  0  0
   47.6970   33.9540   42.2110 S   0  0  0  0  0  0  0  0  0  0  0  0
   49.0880   34.4120   42.5900 O   0  0  0  0  0  0  0  0  0  0  0  0
   47.4410   34.5950   40.8640 O   0  0  0  0  0  0  0  0  0  0  0  0
   45.6319   31.1081   45.5289 H   0  0  0  0  0  0  0  0  0  0  0  0
   45.5778   32.5145   46.6227 H   0  0  0  0  0  0  0  0  0  0  0  0
   47.2579   32.8614   48.3213 H   0  0  0  0  0  0  0  0  0  0  0  0
   47.6118   29.5241   45.5868 H   0  0  0  0  0  0  0  0  0  0  0  0
   48.7649   29.3857   50.8662 H   0  0  0  0  0  0  0  0  0  0  0  0
   50.4651   28.5809   49.0824 H   0  0  0  0  0  0  0  0  0  0  0  0
   53.3681   30.2563   49.9311 H   0  0  0  0  0  0  0  0  0  0  0  0
   52.0211   31.2261   50.7342 H   0  0  0  0  0  0  0  0  0  0  0  0
   52.5074   28.2695   50.8741 H   0  0  0  0  0  0  0  0  0  0  0  0
   50.5385   27.8918   51.5062 H   0  0  0  0  0  0  0  0  0  0  0  0
   49.7418   31.2224   52.0390 H   0  0  0  0  0  0  0  0  0  0  0  0
   52.2952   29.3232   53.2380 H   0  0  0  0  0  0  0  0  0  0  0  0
   50.9686   28.7445   53.5542 H   0  0  0  0  0  0  0  0  0  0  0  0
   47.9066   33.0400   45.3410 H   0  0  0  0  0  0  0  0  0  0  0  0
   47.0035   32.0936   44.0519 H   0  0  0  0  0  0  0  0  0  0  0  0
   45.0349   33.8979   46.3564 H   0  0  0  0  0  0  0  0  0  0  0  0
   43.7608   35.9179   45.7235 H   0  0  0  0  0  0  0  0  0  0  0  0
   44.1847   37.0850   43.5751 H   0  0  0  0  0  0  0  0  0  0  0  0
   45.9385   36.1528   42.0788 H   0  0  0  0  0  0  0  0  0  0  0  0
   47.6244   32.5859   42.2100 H   0  0  0  0  0  0  0  0  0  0  0  0
  1  3  1  0
  2  7  2  0
  3  2  1  0
  4  3  2  0
  4  5  1  0
  5  6  2  0
  6  7  1  0
  8 14  1  0
  8 13  1  0
  9  6  1  0
  9  8  1  0
 10  9  1  0
 10 11  1  0
 11 12  1  0
 12 13  1  0
 12 15  1  0
 13 16  1  0
 17  1  1  0
 18 19  2  0
 19 17  1  0
 19 20  1  0
 21 20  2  0
 22 21  1  0
 23 18  1  0
 23 22  2  0
 24 25  2  0
 24 18  1  0
 26 24  2  0
  1 27  1  0
  1 28  1  0
  2 29  1  0
  4 30  1  0
  8 31  1  6
  9 32  1  6
 11 33  1  0
 11 34  1  0
 12 35  1  6
 13 36  1  6
 14 37  1  0
 15 38  1  0
 16 39  1  0
 17 40  1  0
 17 41  1  0
 20 42  1  0
 21 43  1  0
 22 44  1  0
 23 45  1  0
 24 46  1  0
M  ISO  8  27   8  28   8  29  14  30  14  31  13  32  13  33  13  34  13
M  ISO  8  35  13  36  13  37   3  38   3  39   3  40   8  41   8  42  14
M  ISO  4  43  14  44  14  45  14  46  11
M  END
>  <minimizedAffinity>  (1) 
-6.43992949

>  <minimizedRMSD>  (1) 
1.19230127

$$$$
