
     RDKit          3D

 23 24  0  0  0  0  0  0  0  0999 V2000
   45.1010   35.7480   43.7910 C   0  0  0  0  0  0  0  0  0  0  0  0
   46.0700   34.7760   43.4890 C   0  0  0  0  0  0  0  0  0  0  0  0
   46.3670   33.7720   44.4470 C   0  0  0  0  0  0  0  0  0  0  0  0
   45.6650   33.8350   45.6220 N   0  0  0  0  0  0  0  0  0  0  0  0
   44.7510   34.7770   45.8720 C   0  0  0  0  0  0  0  0  0  0  0  0
   44.4800   35.7140   44.9650 N   0  0  0  0  0  0  0  0  0  0  0  0
   44.8250   36.7380   42.8150 N   0  0  0  0  0  0  0  0  0  0  0  0
   46.1910   33.9980   41.2130 C   0  0  0  0  0  0  0  0  0  0  0  0
   46.8010   34.7300   42.2360 C   0  0  0  0  0  0  0  0  0  0  0  0
   48.0210   35.3300   41.9660 C   0  0  0  0  0  0  0  0  0  0  0  0
   48.5960   35.1940   40.7140 C   0  0  0  0  0  0  0  0  0  0  0  0
   47.9860   34.4680   39.7100 C   0  0  0  0  0  0  0  0  0  0  0  0
   46.7700   33.8630   39.9550 C   0  0  0  0  0  0  0  0  0  0  0  0
   43.8940   32.8110   41.5460 N   0  0  0  0  0  0  0  0  0  0  0  0
   44.9240   33.3390   41.3940 C   0  0  0  0  0  0  0  0  0  0  0  0
   47.1165   32.9895   44.2575 H   0  0  0  0  0  0  0  0  0  0  0  0
   44.2182   34.7787   46.8344 H   0  0  0  0  0  0  0  0  0  0  0  0
   45.3285   36.7298   41.9165 H   0  0  0  0  0  0  0  0  0  0  0  0
   44.1210   37.4656   43.0043 H   0  0  0  0  0  0  0  0  0  0  0  0
   48.5319   35.9137   42.7459 H   0  0  0  0  0  0  0  0  0  0  0  0
   49.5639   35.6768   40.5137 H   0  0  0  0  0  0  0  0  0  0  0  0
   48.4648   34.3728   38.7243 H   0  0  0  0  0  0  0  0  0  0  0  0
   46.2662   33.2829   39.1678 H   0  0  0  0  0  0  0  0  0  0  0  0
  1  6  2  0
  2  1  1  0
  2  3  2  0
  3  4  1  0
  4  5  2  0
  6  5  1  0
  7  1  1  0
  8 15  1  0
  8  9  2  0
  9  2  1  0
 10  9  1  0
 11 10  2  0
 12 13  2  0
 12 11  1  0
 13  8  1  0
 15 14  3  0
  3 16  1  0
  5 17  1  0
  7 18  1  0
  7 19  1  0
 10 20  1  0
 11 21  1  0
 12 22  1  0
 13 23  1  0
M  ISO  6  16  14  17  14  20  14  21  14  22  14  23  14
M  END
>  <minimizedAffinity>  (1) 
-5.22935104

>  <minimizedRMSD>  (1) 
1.08501422

$$$$
