
     RDKit          3D

 22 23  0  0  0  0  0  0  0  0999 V2000
   45.4820   33.7850   45.9850 C   0  0  0  0  0  0  0  0  0  0  0  0
   46.1980   33.0970   44.9670 C   0  0  0  0  0  0  0  0  0  0  0  0
   46.6730   31.7990   45.2900 C   0  0  0  0  0  0  0  0  0  0  0  0
   46.4120   31.3180   46.5280 N   0  0  0  0  0  0  0  0  0  0  0  0
   45.7250   32.0090   47.4650 C   0  0  0  0  0  0  0  0  0  0  0  0
   45.2640   33.2470   47.1790 N   0  0  0  0  0  0  0  0  0  0  0  0
   44.9940   35.0960   45.6780 N   0  0  0  0  0  0  0  0  0  0  0  0
   44.3120   33.3860   42.9450 F   0  0  0  0  0  0  0  0  0  0  0  0
   45.5570   33.8350   42.6230 C   0  0  0  0  0  0  0  0  0  0  0  0
   46.4440   33.6650   43.6660 C   0  0  0  0  0  0  0  0  0  0  0  0
   47.7680   34.0820   43.4830 C   0  0  0  0  0  0  0  0  0  0  0  0
   48.1630   34.6520   42.2760 C   0  0  0  0  0  0  0  0  0  0  0  0
   47.2420   34.8130   41.2360 C   0  0  0  0  0  0  0  0  0  0  0  0
   45.9360   34.3970   41.4290 C   0  0  0  0  0  0  0  0  0  0  0  0
   47.2358   31.2025   44.5569 H   0  0  0  0  0  0  0  0  0  0  0  0
   45.5421   31.5660   48.4551 H   0  0  0  0  0  0  0  0  0  0  0  0
   45.1677   35.5057   44.7491 H   0  0  0  0  0  0  0  0  0  0  0  0
   44.4693   35.6291   46.3861 H   0  0  0  0  0  0  0  0  0  0  0  0
   48.4987   33.9587   44.2959 H   0  0  0  0  0  0  0  0  0  0  0  0
   49.2049   34.9774   42.1396 H   0  0  0  0  0  0  0  0  0  0  0  0
   47.5503   35.2627   40.2806 H   0  0  0  0  0  0  0  0  0  0  0  0
   45.1983   34.5172   40.6220 H   0  0  0  0  0  0  0  0  0  0  0  0
  1  6  2  0
  2  3  2  0
  2  1  1  0
  3  4  1  0
  4  5  2  0
  6  5  1  0
  7  1  1  0
  9  8  1  0
  9 10  2  0
 10  2  1  0
 11 10  1  0
 12 11  2  0
 13 14  2  0
 13 12  1  0
 14  9  1  0
  3 15  1  0
  5 16  1  0
  7 17  1  0
  7 18  1  0
 11 19  1  0
 12 20  1  0
 13 21  1  0
 14 22  1  0
M  ISO  6  15  14  16  14  19  14  20  14  21  14  22  14
M  END
>  <minimizedAffinity>  (1) 
-4.33084393

>  <minimizedRMSD>  (1) 
2.39030647

$$$$
