
     RDKit          3D

 13 13  0  0  0  0  0  0  0  0999 V2000
   45.0970   35.4440   44.1710 C   0  0  0  0  0  0  0  0  0  0  0  0
   46.0710   34.5750   43.6420 C   0  0  0  0  0  0  0  0  0  0  0  0
   46.5390   33.5230   44.4530 C   0  0  0  0  0  0  0  0  0  0  0  0
   46.0080   33.4260   45.6990 N   0  0  0  0  0  0  0  0  0  0  0  0
   45.0800   34.2730   46.1730 C   0  0  0  0  0  0  0  0  0  0  0  0
   44.6220   35.2880   45.4030 N   0  0  0  0  0  0  0  0  0  0  0  0
   44.6260   36.5070   43.3440 N   0  0  0  0  0  0  0  0  0  0  0  0
   46.6960   34.8040   41.9790 S   0  0  0  0  0  0  0  0  0  0  0  0
   47.2989   32.8133   44.0940 H   0  0  0  0  0  0  0  0  0  0  0  0
   44.6896   34.1413   47.1929 H   0  0  0  0  0  0  0  0  0  0  0  0
   44.9986   36.6216   42.3906 H   0  0  0  0  0  0  0  0  0  0  0  0
   43.9134   37.1598   43.7004 H   0  0  0  0  0  0  0  0  0  0  0  0
   47.9813   35.2749   42.0350 H   0  0  0  0  0  0  0  0  0  0  0  0
  1  6  2  0
  2  1  1  0
  2  3  2  0
  3  4  1  0
  4  5  2  0
  6  5  1  0
  7  1  1  0
  8  2  1  0
  3  9  1  0
  5 10  1  0
  7 11  1  0
  7 12  1  0
  8 13  1  0
M  ISO  3   9  14  10  14  13  11
M  END
>  <minimizedAffinity>  (1) 
-3.09139919

>  <minimizedRMSD>  (1) 
0.557955861

$$$$
