
     RDKit          3D

 30 31  0  0  1  0  0  0  0  0999 V2000
   46.1800   34.5350   42.5260 N   0  0  0  0  0  0  0  0  0  0  0  0
   47.1430   35.5590   42.2120 C   0  0  0  0  0  0  0  0  0  0  0  0
   48.1290   35.0710   41.2270 C   0  0  0  0  0  0  0  0  0  0  0  0
   47.7330   33.9300   40.3900 C   0  0  0  0  0  0  0  0  0  0  0  0
   46.2910   33.5860   40.2960 C   0  0  0  0  0  0  0  0  0  0  0  0
   45.4300   33.9340   41.4720 C   0  0  2  0  0  0  0  0  0  0  0  0
   45.1000   34.9120   44.6740 C   0  0  0  0  0  0  0  0  0  0  0  0
   45.9970   34.1430   43.8820 C   0  0  0  0  0  0  0  0  0  0  0  0
   46.6510   33.0500   44.4660 C   0  0  0  0  0  0  0  0  0  0  0  0
   46.3820   32.7940   45.7660 N   0  0  0  0  0  0  0  0  0  0  0  0
   45.5390   33.5210   46.5010 C   0  0  0  0  0  0  0  0  0  0  0  0
   44.9030   34.5680   45.9650 N   0  0  0  0  0  0  0  0  0  0  0  0
   44.4330   36.0150   44.1030 N   0  0  0  0  0  0  0  0  0  0  0  0
   44.3240   34.8840   41.0070 C   0  0  0  0  0  0  0  0  0  0  0  0
   46.6183   36.4310   41.7946 H   0  0  0  0  0  0  0  0  0  0  0  0
   47.6750   35.8358   43.1342 H   0  0  0  0  0  0  0  0  0  0  0  0
   48.3671   35.9081   40.5543 H   0  0  0  0  0  0  0  0  0  0  0  0
   48.9727   34.7022   41.8288 H   0  0  0  0  0  0  0  0  0  0  0  0
   48.0840   34.1393   39.3687 H   0  0  0  0  0  0  0  0  0  0  0  0
   48.1851   33.0603   40.8893 H   0  0  0  0  0  0  0  0  0  0  0  0
   45.8817   34.1088   39.4190 H   0  0  0  0  0  0  0  0  0  0  0  0
   46.2628   32.4880   40.2366 H   0  0  0  0  0  0  0  0  0  0  0  0
   44.9971   33.0056   41.8729 H   0  0  0  0  0  0  0  0  0  0  0  0
   47.3528   32.4273   43.8917 H   0  0  0  0  0  0  0  0  0  0  0  0
   45.3659   33.2575   47.5549 H   0  0  0  0  0  0  0  0  0  0  0  0
   44.5966   36.2614   43.1164 H   0  0  0  0  0  0  0  0  0  0  0  0
   43.7821   36.5744   44.6724 H   0  0  0  0  0  0  0  0  0  0  0  0
   43.8200   35.3169   41.8836 H   0  0  0  0  0  0  0  0  0  0  0  0
   44.7637   35.6903   40.4016 H   0  0  0  0  0  0  0  0  0  0  0  0
   43.5933   34.3276   40.4016 H   0  0  0  0  0  0  0  0  0  0  0  0
  1  8  1  0
  2  1  1  0
  3  2  1  0
  4  3  1  0
  5  4  1  0
  5  6  1  0
  6  1  1  0
  7 12  2  0
  8  9  2  0
  8  7  1  0
  9 10  1  0
 10 11  2  0
 12 11  1  0
 13  7  1  0
 14  6  1  0
  2 15  1  0
  2 16  1  0
  3 17  1  0
  3 18  1  0
  4 19  1  0
  4 20  1  0
  5 21  1  0
  5 22  1  0
  6 23  1  1
  9 24  1  0
 11 25  1  0
 13 26  1  0
 13 27  1  0
 14 28  1  0
 14 29  1  0
 14 30  1  0
M  ISO  8  15  13  16  13  17  13  18  13  19  13  20  13  21  13  22  13
M  ISO  6  23  13  24  14  25  14  28   8  29   8  30   8
M  END
>  <minimizedAffinity>  (1) 
-4.38243437

>  <minimizedRMSD>  (1) 
0.965545475

$$$$
