
     RDKit          3D

 22 22  0  0  0  0  0  0  0  0999 V2000
   47.7190   33.3690   43.5910 C   0  0  0  0  0  0  0  0  0  0  0  0
   46.5840   34.2580   43.7950 C   0  0  0  0  0  0  0  0  0  0  0  0
   46.1980   35.1760   42.8270 C   0  0  0  0  0  0  0  0  0  0  0  0
   45.0710   36.0010   43.1010 C   0  0  0  0  0  0  0  0  0  0  0  0
   44.4450   35.8320   44.3090 N   0  0  0  0  0  0  0  0  0  0  0  0
   44.8700   34.9190   45.2140 C   0  0  0  0  0  0  0  0  0  0  0  0
   45.9390   34.1350   44.9530 N   0  0  0  0  0  0  0  0  0  0  0  0
   47.7070   32.8780   42.1650 C   0  0  0  0  0  0  0  0  0  0  0  0
   48.8090   33.3300   41.4420 O   0  0  0  0  0  0  0  0  0  0  0  0
   50.8690   31.9630   40.5070 O   0  0  0  0  0  0  0  0  0  0  0  0
   50.2000   32.4440   41.7750 P   0  0  0  0  0  0  0  0  0  0  0  0
   51.2770   33.4140   42.6260 O   0  0  0  0  0  0  0  0  0  0  0  0
   49.8740   31.0880   42.7280 O   0  0  0  0  0  0  0  0  0  0  0  0
   48.6543   33.9142   43.7856 H   0  0  0  0  0  0  0  0  0  0  0  0
   47.6501   32.5138   44.2795 H   0  0  0  0  0  0  0  0  0  0  0  0
   46.7465   35.2629   41.8775 H   0  0  0  0  0  0  0  0  0  0  0  0
   44.7163   36.7448   42.3723 H   0  0  0  0  0  0  0  0  0  0  0  0
   44.3394   34.8144   46.1719 H   0  0  0  0  0  0  0  0  0  0  0  0
   47.7134   31.7780   42.1693 H   0  0  0  0  0  0  0  0  0  0  0  0
   46.8014   33.2719   41.6805 H   0  0  0  0  0  0  0  0  0  0  0  0
   51.1373   33.2882   43.5980 H   0  0  0  0  0  0  0  0  0  0  0  0
   49.9334   31.3351   43.6848 H   0  0  0  0  0  0  0  0  0  0  0  0
  1  2  1  0
  2  7  2  0
  3  4  2  0
  3  2  1  0
  4  5  1  0
  5  6  2  0
  7  6  1  0
  8  1  1  0
  9 11  1  0
  9  8  1  0
 10 11  2  0
 11 12  1  0
 11 13  1  0
  1 14  1  0
  1 15  1  0
  3 16  1  0
  4 17  1  0
  6 18  1  0
  8 19  1  0
  8 20  1  0
 12 21  1  0
 13 22  1  0
M  ISO  8  14   8  15   8  16  14  17  14  18  14  19   8  20   8  21   3
M  ISO  1  22   3
M  END
>  <minimizedAffinity>  (1) 
-3.74864984

>  <minimizedRMSD>  (1) 
1.35174525

$$$$
