
     RDKit          3D

 14 14  0  0  0  0  0  0  0  0999 V2000
   44.6640   36.0670   44.2820 C   0  0  0  0  0  0  0  0  0  0  0  0
   45.4790   35.5790   43.2370 C   0  0  0  0  0  0  0  0  0  0  0  0
   46.1830   34.3920   43.4670 C   0  0  0  0  0  0  0  0  0  0  0  0
   46.0450   33.7810   44.6740 N   0  0  0  0  0  0  0  0  0  0  0  0
   45.2600   34.2710   45.6510 C   0  0  0  0  0  0  0  0  0  0  0  0
   44.5680   35.4200   45.4510 N   0  0  0  0  0  0  0  0  0  0  0  0
   46.1650   32.5810   47.1290 C   0  0  0  0  0  0  0  0  0  0  0  0
   47.0990   32.2770   46.3520 O   0  0  0  0  0  0  0  0  0  0  0  0
   45.1640   33.5730   46.8940 N   0  0  0  0  0  0  0  0  0  0  0  0
   44.0964   36.9974   44.1330 H   0  0  0  0  0  0  0  0  0  0  0  0
   45.5574   36.1122   42.2781 H   0  0  0  0  0  0  0  0  0  0  0  0
   46.8327   33.9632   42.6899 H   0  0  0  0  0  0  0  0  0  0  0  0
   46.1102   32.0331   48.0813 H   0  0  0  0  0  0  0  0  0  0  0  0
   44.4199   33.7724   47.5777 H   0  0  0  0  0  0  0  0  0  0  0  0
  1  6  2  0
  2  3  2  0
  2  1  1  0
  3  4  1  0
  4  5  2  0
  5  9  1  0
  6  5  1  0
  8  7  2  0
  9  7  1  0
  1 10  1  0
  2 11  1  0
  3 12  1  0
  7 13  1  0
  9 14  1  0
M  ISO  4  10  14  11  14  12  14  13   6
M  END
>  <minimizedAffinity>  (1) 
-3.92395377

>  <minimizedRMSD>  (1) 
0.274096906

$$$$
