
     RDKit          3D

 17 17  0  0  0  0  0  0  0  0999 V2000
   46.6310   34.2650   43.6380 C   0  0  0  0  0  0  0  0  0  0  0  0
   46.1100   35.2920   42.8630 C   0  0  0  0  0  0  0  0  0  0  0  0
   45.0030   36.0260   43.3530 C   0  0  0  0  0  0  0  0  0  0  0  0
   44.5150   35.6650   44.5800 N   0  0  0  0  0  0  0  0  0  0  0  0
   45.0570   34.6640   45.2890 C   0  0  0  0  0  0  0  0  0  0  0  0
   46.0970   33.9650   44.8420 N   0  0  0  0  0  0  0  0  0  0  0  0
   47.7670   33.4500   43.2150 C   0  0  0  0  0  0  0  0  0  0  0  0
   48.8540   34.3680   42.7220 C   0  0  0  0  0  0  0  0  0  0  0  0
   50.3940   33.5120   42.3420 S   0  0  0  0  0  0  0  0  0  0  0  0
   46.5502   35.5317   41.8838 H   0  0  0  0  0  0  0  0  0  0  0  0
   44.5559   36.8480   42.7748 H   0  0  0  0  0  0  0  0  0  0  0  0
   44.6284   34.4131   46.2705 H   0  0  0  0  0  0  0  0  0  0  0  0
   48.1374   32.8591   44.0657 H   0  0  0  0  0  0  0  0  0  0  0  0
   47.4607   32.7625   42.4128 H   0  0  0  0  0  0  0  0  0  0  0  0
   48.4996   34.8701   41.8097 H   0  0  0  0  0  0  0  0  0  0  0  0
   49.0694   35.0812   43.5313 H   0  0  0  0  0  0  0  0  0  0  0  0
   51.0222   33.1628   43.5083 H   0  0  0  0  0  0  0  0  0  0  0  0
  1  6  2  0
  2  3  2  0
  2  1  1  0
  3  4  1  0
  4  5  2  0
  6  5  1  0
  7  1  1  0
  8  7  1  0
  9  8  1  0
  2 10  1  0
  3 11  1  0
  5 12  1  0
  7 13  1  0
  7 14  1  0
  8 15  1  0
  8 16  1  0
  9 17  1  0
M  ISO  8  10  14  11  14  12  14  13   8  14   8  15   8  16   8  17  11
M  END
>  <minimizedAffinity>  (1) 
-3.14723301

>  <minimizedRMSD>  (1) 
0.820482969

$$$$
