
     RDKit          3D

 36 38  0  0  1  0  0  0  0  0999 V2000
   49.0710   33.0490   41.8260 C   0  0  0  0  0  0  0  0  0  0  0  0
   48.9140   32.2680   40.6390 C   0  0  0  0  0  0  0  0  0  0  0  0
   50.0280   31.6880   40.0930 C   0  0  0  0  0  0  0  0  0  0  0  0
   51.3150   31.8960   40.7490 C   0  0  0  0  0  0  0  0  0  0  0  0
   50.9170   32.9340   42.1620 S   0  0  0  0  0  0  0  0  0  0  0  0
   52.5700   31.1300   38.9000 C   0  0  2  0  0  0  0  0  0  0  0  0
   52.5650   31.4050   40.3670 C   0  0  2  0  0  0  0  0  0  0  0  0
   52.8450   30.2150   41.0200 O   0  0  0  0  0  0  0  0  0  0  0  0
   53.4320   29.3480   40.1260 C   0  0  0  0  0  0  0  0  0  0  0  0
   53.5890   30.0190   38.8050 C   0  0  1  0  0  0  0  0  0  0  0  0
   52.9370   32.2670   38.1820 O   0  0  0  0  0  0  0  0  0  0  0  0
   53.1930   29.1940   37.7350 O   0  0  0  0  0  0  0  0  0  0  0  0
   48.2240   33.8080   42.6990 C   0  0  0  0  0  0  0  0  0  0  0  0
   47.7010   35.1100   42.1350 C   0  0  0  0  0  0  0  0  0  0  0  0
   46.2550   35.0570   42.0900 C   0  0  0  0  0  0  0  0  0  0  0  0
   45.4560   35.6320   43.0700 C   0  0  0  0  0  0  0  0  0  0  0  0
   44.0750   35.5400   42.9560 C   0  0  0  0  0  0  0  0  0  0  0  0
   43.5720   34.8810   41.8760 N   0  0  0  0  0  0  0  0  0  0  0  0
   44.3580   34.3290   40.9360 C   0  0  0  0  0  0  0  0  0  0  0  0
   45.6700   34.4260   41.0580 N   0  0  0  0  0  0  0  0  0  0  0  0
   47.9247   32.1364   40.1765 H   0  0  0  0  0  0  0  0  0  0  0  0
   49.9544   31.0788   39.1801 H   0  0  0  0  0  0  0  0  0  0  0  0
   51.5930   30.8536   38.4767 H   0  0  0  0  0  0  0  0  0  0  0  0
   53.3200   32.1614   40.6276 H   0  0  0  0  0  0  0  0  0  0  0  0
   54.4206   29.0476   40.5033 H   0  0  0  0  0  0  0  0  0  0  0  0
   52.7953   28.4586   40.0094 H   0  0  0  0  0  0  0  0  0  0  0  0
   54.6320   30.3146   38.6187 H   0  0  0  0  0  0  0  0  0  0  0  0
   53.1716   32.9937   38.8121 H   0  0  0  0  0  0  0  0  0  0  0  0
   52.7932   28.3612   38.0909 H   0  0  0  0  0  0  0  0  0  0  0  0
   47.3588   33.1809   42.9602 H   0  0  0  0  0  0  0  0  0  0  0  0
   48.8505   34.0839   43.5601 H   0  0  0  0  0  0  0  0  0  0  0  0
   48.0197   35.9445   42.7770 H   0  0  0  0  0  0  0  0  0  0  0  0
   48.0991   35.2623   41.1209 H   0  0  0  0  0  0  0  0  0  0  0  0
   45.9111   36.1533   43.9251 H   0  0  0  0  0  0  0  0  0  0  0  0
   43.4107   35.9841   43.7119 H   0  0  0  0  0  0  0  0  0  0  0  0
   43.9152   33.8037   40.0769 H   0  0  0  0  0  0  0  0  0  0  0  0
  1  5  1  0
  1 13  1  0
  2  1  2  0
  3  2  1  0
  3  4  2  0
  4  5  1  0
  6 11  1  0
  6  7  1  0
  7  4  1  0
  7  8  1  0
  9  8  1  0
 10 12  1  0
 10  6  1  0
 10  9  1  0
 14 13  1  0
 15 14  1  0
 15 16  2  0
 17 16  1  0
 18 17  2  0
 19 20  2  0
 19 18  1  0
 20 15  1  0
  2 21  1  0
  3 22  1  0
  6 23  1  6
  7 24  1  6
  9 25  1  0
  9 26  1  0
 10 27  1  6
 11 28  1  0
 12 29  1  0
 13 30  1  0
 13 31  1  0
 14 32  1  0
 14 33  1  0
 16 34  1  0
 17 35  1  0
 19 36  1  0
M  ISO  8  21  14  22  14  23  13  24  13  25  13  26  13  27  13  28   3
M  ISO  8  29   3  30   8  31   8  32   8  33   8  34  14  35  14  36  14
M  END
>  <minimizedAffinity>  (1) 
-4.44052887

>  <minimizedRMSD>  (1) 
1.73570299

$$$$
