
     RDKit          3D

 36 38  0  0  0  0  0  0  0  0999 V2000
   48.6540   33.8330   42.2480 C   0  0  0  0  0  0  0  0  0  0  0  0
   49.2350   33.0190   41.2350 C   0  0  0  0  0  0  0  0  0  0  0  0
   48.8990   32.5940   39.9050 C   0  0  0  0  0  0  0  0  0  0  0  0
   49.7600   31.7790   39.2260 C   0  0  0  0  0  0  0  0  0  0  0  0
   50.9780   31.3840   39.8980 C   0  0  0  0  0  0  0  0  0  0  0  0
   50.9190   32.1760   41.5240 S   0  0  0  0  0  0  0  0  0  0  0  0
   51.9830   30.5510   39.3620 C   0  0  0  0  0  0  0  0  0  0  0  0
   51.7660   30.2770   37.8880 C   0  0  0  0  0  0  0  0  0  0  0  0
   53.1060   30.5020   37.2210 C   0  0  0  0  0  0  0  0  0  0  0  0
   53.7470   31.5590   38.0590 C   0  0  0  0  0  0  0  0  0  0  0  0
   53.3610   31.1690   39.4710 C   0  0  0  0  0  0  0  0  0  0  0  0
   47.9960   35.1040   41.7790 C   0  0  0  0  0  0  0  0  0  0  0  0
   46.5460   34.9770   41.9420 C   0  0  0  0  0  0  0  0  0  0  0  0
   45.8840   35.4760   43.0570 C   0  0  0  0  0  0  0  0  0  0  0  0
   44.5070   35.3100   43.1280 C   0  0  0  0  0  0  0  0  0  0  0  0
   43.8820   34.6770   42.1170 N   0  0  0  0  0  0  0  0  0  0  0  0
   44.5400   34.2050   41.0530 C   0  0  0  0  0  0  0  0  0  0  0  0
   45.8510   34.3600   40.9800 N   0  0  0  0  0  0  0  0  0  0  0  0
   47.8928   33.2319   42.7669 H   0  0  0  0  0  0  0  0  0  0  0  0
   49.4903   34.1514   42.8877 H   0  0  0  0  0  0  0  0  0  0  0  0
   47.9584   32.9212   39.4379 H   0  0  0  0  0  0  0  0  0  0  0  0
   49.5349   31.4358   38.2054 H   0  0  0  0  0  0  0  0  0  0  0  0
   51.9211   29.6249   39.9524 H   0  0  0  0  0  0  0  0  0  0  0  0
   51.4331   29.2395   37.7369 H   0  0  0  0  0  0  0  0  0  0  0  0
   50.9903   30.9328   37.4659 H   0  0  0  0  0  0  0  0  0  0  0  0
   53.7061   29.5801   37.2261 H   0  0  0  0  0  0  0  0  0  0  0  0
   53.0121   30.7947   36.1648 H   0  0  0  0  0  0  0  0  0  0  0  0
   54.8398   31.5521   37.9335 H   0  0  0  0  0  0  0  0  0  0  0  0
   53.4233   32.5754   37.7903 H   0  0  0  0  0  0  0  0  0  0  0  0
   53.3332   32.0565   40.1202 H   0  0  0  0  0  0  0  0  0  0  0  0
   54.0864   30.4696   39.9122 H   0  0  0  0  0  0  0  0  0  0  0  0
   48.2347   35.2736   40.7187 H   0  0  0  0  0  0  0  0  0  0  0  0
   48.3641   35.9544   42.3718 H   0  0  0  0  0  0  0  0  0  0  0  0
   46.4346   35.9877   43.8602 H   0  0  0  0  0  0  0  0  0  0  0  0
   43.9392   35.6874   43.9913 H   0  0  0  0  0  0  0  0  0  0  0  0
   43.9957   33.6926   40.2460 H   0  0  0  0  0  0  0  0  0  0  0  0
  2  6  1  0
  2  1  1  0
  3  2  2  0
  4  5  2  0
  4  3  1  0
  5  6  1  0
  7 11  1  0
  7  5  1  0
  8  7  1  0
  9  8  1  0
  9 10  1  0
 10 11  1  0
 12 13  1  0
 12  1  1  0
 13 14  2  0
 14 15  1  0
 16 15  2  0
 17 16  1  0
 18 17  2  0
 18 13  1  0
  1 19  1  0
  1 20  1  0
  3 21  1  0
  4 22  1  0
  7 23  1  0
  8 24  1  0
  8 25  1  0
  9 26  1  0
  9 27  1  0
 10 28  1  0
 10 29  1  0
 11 30  1  0
 11 31  1  0
 12 32  1  0
 12 33  1  0
 14 34  1  0
 15 35  1  0
 17 36  1  0
M  ISO  8  19   8  20   8  21  14  22  14  23  13  24  13  25  13  26  13
M  ISO  8  27  13  28  13  29  13  30  13  31  13  32   8  33   8  34  14
M  ISO  2  35  14  36  14
M  END
>  <minimizedAffinity>  (1) 
-4.01236153

>  <minimizedRMSD>  (1) 
1.23882353

$$$$
