
     RDKit          3D

 30 32  0  0  0  0  0  0  0  0999 V2000
   48.3440   34.0030   42.7210 C   0  0  0  0  0  0  0  0  0  0  0  0
   49.0960   33.1820   41.8280 C   0  0  0  0  0  0  0  0  0  0  0  0
   48.8680   32.4450   40.6180 C   0  0  0  0  0  0  0  0  0  0  0  0
   49.8780   31.7550   40.0350 C   0  0  0  0  0  0  0  0  0  0  0  0
   51.1650   31.8050   40.6940 C   0  0  0  0  0  0  0  0  0  0  0  0
   50.9270   32.8400   42.1400 S   0  0  0  0  0  0  0  0  0  0  0  0
   52.3810   31.1570   40.2690 C   0  0  0  0  0  0  0  0  0  0  0  0
   52.9180   31.3270   39.0160 C   0  0  0  0  0  0  0  0  0  0  0  0
   54.0380   30.5440   39.0600 N   0  0  0  0  0  0  0  0  0  0  0  0
   54.1610   29.9380   40.2780 C   0  0  0  0  0  0  0  0  0  0  0  0
   53.0980   30.3350   41.0420 N   0  0  0  0  0  0  0  0  0  0  0  0
   47.7310   35.2440   42.1190 C   0  0  0  0  0  0  0  0  0  0  0  0
   46.2850   35.1140   42.1180 C   0  0  0  0  0  0  0  0  0  0  0  0
   45.4980   35.6600   43.1290 C   0  0  0  0  0  0  0  0  0  0  0  0
   44.1160   35.5000   43.0710 C   0  0  0  0  0  0  0  0  0  0  0  0
   43.6040   34.8130   42.0200 N   0  0  0  0  0  0  0  0  0  0  0  0
   44.3930   34.2950   41.0550 C   0  0  0  0  0  0  0  0  0  0  0  0
   45.7090   34.4490   41.1150 N   0  0  0  0  0  0  0  0  0  0  0  0
   47.5288   33.3915   43.1351 H   0  0  0  0  0  0  0  0  0  0  0  0
   49.0632   34.3612   43.4723 H   0  0  0  0  0  0  0  0  0  0  0  0
   47.8674   32.4402   40.1611 H   0  0  0  0  0  0  0  0  0  0  0  0
   49.7268   31.1850   39.1065 H   0  0  0  0  0  0  0  0  0  0  0  0
   52.5408   31.9403   38.1844 H   0  0  0  0  0  0  0  0  0  0  0  0
   54.7000   30.4268   38.2796 H   0  0  0  0  0  0  0  0  0  0  0  0
   54.9667   29.2561   40.5876 H   0  0  0  0  0  0  0  0  0  0  0  0
   48.0204   36.1225   42.7144 H   0  0  0  0  0  0  0  0  0  0  0  0
   48.0901   35.3683   41.0867 H   0  0  0  0  0  0  0  0  0  0  0  0
   45.9615   36.2098   43.9614 H   0  0  0  0  0  0  0  0  0  0  0  0
   43.4619   35.9167   43.8511 H   0  0  0  0  0  0  0  0  0  0  0  0
   43.9432   33.7435   40.2163 H   0  0  0  0  0  0  0  0  0  0  0  0
  2  6  1  0
  2  1  1  0
  3  2  2  0
  4  3  1  0
  4  5  2  0
  5  6  1  0
  7  5  1  0
  7 11  1  0
  8  9  1  0
  8  7  2  0
  9 10  1  0
 10 11  2  0
 12  1  1  0
 13 12  1  0
 13 14  2  0
 15 14  1  0
 16 15  2  0
 17 18  2  0
 17 16  1  0
 18 13  1  0
  1 19  1  0
  1 20  1  0
  3 21  1  0
  4 22  1  0
  8 23  1  0
  9 24  1  0
 10 25  1  0
 12 26  1  0
 12 27  1  0
 14 28  1  0
 15 29  1  0
 17 30  1  0
M  ISO  8  19   8  20   8  21  14  22  14  23  14  24   9  25  14  26   8
M  ISO  4  27   8  28  14  29  14  30  14
M  END
>  <minimizedAffinity>  (1) 
-4.00290871

>  <minimizedRMSD>  (1) 
1.38539135

$$$$
