
     RDKit          3D

 26 27  0  0  0  0  0  0  0  0999 V2000
   48.4720   33.9910   42.5720 C   0  0  0  0  0  0  0  0  0  0  0  0
   49.2090   33.1460   41.6790 C   0  0  0  0  0  0  0  0  0  0  0  0
   49.0050   32.4780   40.4280 C   0  0  0  0  0  0  0  0  0  0  0  0
   50.0180   31.7420   39.8990 C   0  0  0  0  0  0  0  0  0  0  0  0
   51.2600   31.6790   40.6460 C   0  0  0  0  0  0  0  0  0  0  0  0
   50.9890   32.6720   42.1100 S   0  0  0  0  0  0  0  0  0  0  0  0
   52.4100   30.9560   40.2310 C   0  0  0  0  0  0  0  0  0  0  0  0
   51.9900   29.8640   39.4600 F   0  0  0  0  0  0  0  0  0  0  0  0
   53.3560   31.6560   39.4930 F   0  0  0  0  0  0  0  0  0  0  0  0
   53.0410   30.4320   41.3230 F   0  0  0  0  0  0  0  0  0  0  0  0
   47.8340   35.2000   41.9220 C   0  0  0  0  0  0  0  0  0  0  0  0
   46.3780   35.0660   42.0110 C   0  0  0  0  0  0  0  0  0  0  0  0
   45.6510   35.6060   43.0600 C   0  0  0  0  0  0  0  0  0  0  0  0
   44.2720   35.4300   43.0630 C   0  0  0  0  0  0  0  0  0  0  0  0
   43.6950   34.7500   42.0590 N   0  0  0  0  0  0  0  0  0  0  0  0
   44.4250   34.2310   41.0450 C   0  0  0  0  0  0  0  0  0  0  0  0
   45.7310   34.4060   41.0560 N   0  0  0  0  0  0  0  0  0  0  0  0
   47.6744   33.3892   43.0321 H   0  0  0  0  0  0  0  0  0  0  0  0
   49.1988   34.3792   43.3007 H   0  0  0  0  0  0  0  0  0  0  0  0
   48.0419   32.5596   39.9029 H   0  0  0  0  0  0  0  0  0  0  0  0
   49.9005   31.2143   38.9410 H   0  0  0  0  0  0  0  0  0  0  0  0
   48.1369   35.2558   40.8660 H   0  0  0  0  0  0  0  0  0  0  0  0
   48.1586   36.1172   42.4353 H   0  0  0  0  0  0  0  0  0  0  0  0
   46.1516   36.1590   43.8685 H   0  0  0  0  0  0  0  0  0  0  0  0
   43.6604   35.8431   43.8786 H   0  0  0  0  0  0  0  0  0  0  0  0
   43.9391   33.6753   40.2295 H   0  0  0  0  0  0  0  0  0  0  0  0
  2  6  1  0
  2  1  1  0
  3  2  2  0
  4  3  1  0
  4  5  2  0
  5  6  1  0
  7  5  1  0
  7 10  1  0
  8  7  1  0
  9  7  1  0
 11 12  1  0
 11  1  1  0
 12 13  2  0
 13 14  1  0
 15 14  2  0
 16 17  2  0
 16 15  1  0
 17 12  1  0
  1 18  1  0
  1 19  1  0
  3 20  1  0
  4 21  1  0
 11 22  1  0
 11 23  1  0
 13 24  1  0
 14 25  1  0
 16 26  1  0
M  ISO  8  18   8  19   8  20  14  21  14  22   8  23   8  24  14  25  14
M  ISO  1  26  14
M  END
>  <minimizedAffinity>  (1) 
-3.80586767

>  <minimizedRMSD>  (1) 
0.954473972

$$$$
