
     RDKit          3D

 30 32  0  0  0  0  0  0  0  0999 V2000
   48.6220   34.1920   42.5340 C   0  0  0  0  0  0  0  0  0  0  0  0
   49.2640   33.2540   41.6710 C   0  0  0  0  0  0  0  0  0  0  0  0
   48.9870   32.6180   40.4150 C   0  0  0  0  0  0  0  0  0  0  0  0
   49.8760   31.7470   39.8830 C   0  0  0  0  0  0  0  0  0  0  0  0
   51.0930   31.4960   40.6340 C   0  0  0  0  0  0  0  0  0  0  0  0
   50.9530   32.5250   42.1140 S   0  0  0  0  0  0  0  0  0  0  0  0
   52.1750   30.6550   40.3320 C   0  0  0  0  0  0  0  0  0  0  0  0
   53.2830   31.2570   39.4420 C   0  0  0  0  0  0  0  0  0  0  0  0
   52.4410   30.1090   38.9700 C   0  0  0  0  0  0  0  0  0  0  0  0
   47.8870   35.3230   41.8750 C   0  0  0  0  0  0  0  0  0  0  0  0
   46.4590   35.1000   41.9760 C   0  0  0  0  0  0  0  0  0  0  0  0
   45.7120   35.6060   43.0440 C   0  0  0  0  0  0  0  0  0  0  0  0
   44.3440   35.3640   43.0920 C   0  0  0  0  0  0  0  0  0  0  0  0
   43.8040   34.6400   42.0850 N   0  0  0  0  0  0  0  0  0  0  0  0
   44.5420   34.1640   41.0670 C   0  0  0  0  0  0  0  0  0  0  0  0
   45.8530   34.3890   41.0110 N   0  0  0  0  0  0  0  0  0  0  0  0
   47.8977   33.6374   43.1487 H   0  0  0  0  0  0  0  0  0  0  0  0
   49.4365   34.6680   43.0996 H   0  0  0  0  0  0  0  0  0  0  0  0
   48.0498   32.8388   39.8831 H   0  0  0  0  0  0  0  0  0  0  0  0
   49.6843   31.2495   38.9208 H   0  0  0  0  0  0  0  0  0  0  0  0
   52.0783   30.1737   41.3164 H   0  0  0  0  0  0  0  0  0  0  0  0
   53.1558   32.2558   38.9991 H   0  0  0  0  0  0  0  0  0  0  0  0
   54.3608   31.4482   39.5507 H   0  0  0  0  0  0  0  0  0  0  0  0
   51.7058   30.2675   38.1672 H   0  0  0  0  0  0  0  0  0  0  0  0
   52.6654   29.1059   38.5782 H   0  0  0  0  0  0  0  0  0  0  0  0
   48.1747   35.3779   40.8147 H   0  0  0  0  0  0  0  0  0  0  0  0
   48.1453   36.2674   42.3764 H   0  0  0  0  0  0  0  0  0  0  0  0
   46.2015   36.1893   43.8378 H   0  0  0  0  0  0  0  0  0  0  0  0
   43.7247   35.7464   43.9168 H   0  0  0  0  0  0  0  0  0  0  0  0
   44.0565   33.5813   40.2703 H   0  0  0  0  0  0  0  0  0  0  0  0
  2  6  1  0
  2  1  1  0
  3  2  2  0
  4  3  1  0
  4  5  2  0
  5  6  1  0
  7  5  1  0
  8  7  1  0
  9  8  1  0
  9  7  1  0
 10 11  1  0
 10  1  1  0
 11 12  2  0
 12 13  1  0
 14 13  2  0
 15 14  1  0
 16 15  2  0
 16 11  1  0
  1 17  1  0
  1 18  1  0
  3 19  1  0
  4 20  1  0
  7 21  1  0
  8 22  1  0
  8 23  1  0
  9 24  1  0
  9 25  1  0
 10 26  1  0
 10 27  1  0
 12 28  1  0
 13 29  1  0
 15 30  1  0
M  ISO  8  17   8  18   8  19  14  20  14  21  13  22  13  23  13  24  13
M  ISO  6  25  13  26   8  27   8  28  14  29  14  30  14
M  END
>  <minimizedAffinity>  (1) 
-3.63822222

>  <minimizedRMSD>  (1) 
0.905596316

$$$$
