
     RDKit          3D

 28 29  0  0  0  0  0  0  0  0999 V2000
   48.2350   33.9350   42.6930 C   0  0  0  0  0  0  0  0  0  0  0  0
   49.0920   33.1740   41.8610 C   0  0  0  0  0  0  0  0  0  0  0  0
   48.9680   32.4170   40.6690 C   0  0  0  0  0  0  0  0  0  0  0  0
   50.0330   31.7840   40.1330 C   0  0  0  0  0  0  0  0  0  0  0  0
   51.2940   31.9080   40.8170 C   0  0  0  0  0  0  0  0  0  0  0  0
   50.9380   32.9460   42.2450 S   0  0  0  0  0  0  0  0  0  0  0  0
   52.4260   31.3890   40.4790 O   0  0  0  0  0  0  0  0  0  0  0  0
   52.9750   30.1800   40.9180 C   0  0  0  0  0  0  0  0  0  0  0  0
   52.3370   29.1110   40.7700 O   0  0  0  0  0  0  0  0  0  0  0  0
   54.2760   30.2340   41.5270 N   0  0  0  0  0  0  0  0  0  0  0  0
   47.6590   35.1710   42.1320 C   0  0  0  0  0  0  0  0  0  0  0  0
   46.2120   35.0350   41.9850 C   0  0  0  0  0  0  0  0  0  0  0  0
   45.3500   35.6090   42.9000 C   0  0  0  0  0  0  0  0  0  0  0  0
   43.9770   35.4420   42.7060 C   0  0  0  0  0  0  0  0  0  0  0  0
   43.5780   34.7230   41.6260 N   0  0  0  0  0  0  0  0  0  0  0  0
   44.4420   34.1820   40.7610 C   0  0  0  0  0  0  0  0  0  0  0  0
   45.7260   34.3430   40.9500 N   0  0  0  0  0  0  0  0  0  0  0  0
   47.3973   33.2846   42.9850 H   0  0  0  0  0  0  0  0  0  0  0  0
   48.8776   34.2760   43.5181 H   0  0  0  0  0  0  0  0  0  0  0  0
   47.9888   32.3443   40.1731 H   0  0  0  0  0  0  0  0  0  0  0  0
   49.9410   31.1955   39.2083 H   0  0  0  0  0  0  0  0  0  0  0  0
   54.7221   29.3698   41.8662 H   0  0  0  0  0  0  0  0  0  0  0  0
   54.7621   31.1369   41.6241 H   0  0  0  0  0  0  0  0  0  0  0  0
   47.8777   36.0119   42.8065 H   0  0  0  0  0  0  0  0  0  0  0  0
   48.1033   35.3558   41.1428 H   0  0  0  0  0  0  0  0  0  0  0  0
   45.7344   36.1814   43.7571 H   0  0  0  0  0  0  0  0  0  0  0  0
   43.2457   35.8772   43.4030 H   0  0  0  0  0  0  0  0  0  0  0  0
   44.0761   33.6065   39.8979 H   0  0  0  0  0  0  0  0  0  0  0  0
  2  6  1  0
  2  1  1  0
  3  2  2  0
  4  3  1  0
  4  5  2  0
  5  6  1  0
  7  5  1  0
  7  8  1  0
  8 10  1  0
  9  8  2  0
 11  1  1  0
 12 11  1  0
 12 13  2  0
 14 13  1  0
 15 14  2  0
 16 17  2  0
 16 15  1  0
 17 12  1  0
  1 18  1  0
  1 19  1  0
  3 20  1  0
  4 21  1  0
 10 22  1  0
 10 23  1  0
 11 24  1  0
 11 25  1  0
 13 26  1  0
 14 27  1  0
 16 28  1  0
M  ISO  8  18   8  19   8  20  14  21  14  24   8  25   8  26  14  27  14
M  ISO  1  28  14
M  END
>  <minimizedAffinity>  (1) 
-3.747159

>  <minimizedRMSD>  (1) 
0.179643214

$$$$
