
     RDKit          3D

 33 35  0  0  0  0  0  0  0  0999 V2000
   49.1040   33.1870   41.8500 C   0  0  0  0  0  0  0  0  0  0  0  0
   48.9130   32.4120   40.6820 C   0  0  0  0  0  0  0  0  0  0  0  0
   49.9260   31.7330   40.1020 C   0  0  0  0  0  0  0  0  0  0  0  0
   51.2190   31.8310   40.7250 C   0  0  0  0  0  0  0  0  0  0  0  0
   50.9630   32.9060   42.1480 S   0  0  0  0  0  0  0  0  0  0  0  0
   48.3200   33.9910   42.7110 C   0  0  0  0  0  0  0  0  0  0  0  0
   47.7150   35.2090   42.1410 C   0  0  0  0  0  0  0  0  0  0  0  0
   46.2600   35.1020   42.1270 C   0  0  0  0  0  0  0  0  0  0  0  0
   45.4870   35.6600   43.1270 C   0  0  0  0  0  0  0  0  0  0  0  0
   44.1050   35.5110   43.0380 C   0  0  0  0  0  0  0  0  0  0  0  0
   43.5830   34.8360   41.9890 N   0  0  0  0  0  0  0  0  0  0  0  0
   44.3830   34.3080   41.0370 C   0  0  0  0  0  0  0  0  0  0  0  0
   45.6810   34.4410   41.1090 N   0  0  0  0  0  0  0  0  0  0  0  0
   52.3330   31.2970   40.3880 O   0  0  0  0  0  0  0  0  0  0  0  0
   52.8950   30.2460   41.1000 C   0  0  0  0  0  0  0  0  0  0  0  0
   54.2420   29.9740   41.0480 C   0  0  0  0  0  0  0  0  0  0  0  0
   54.6280   28.8860   41.8240 C   0  0  0  0  0  0  0  0  0  0  0  0
   53.7630   28.1370   42.5800 C   0  0  0  0  0  0  0  0  0  0  0  0
   52.4310   28.4510   42.5960 C   0  0  0  0  0  0  0  0  0  0  0  0
   52.0440   29.5130   41.8410 N   0  0  0  0  0  0  0  0  0  0  0  0
   47.9100   32.3610   40.2332 H   0  0  0  0  0  0  0  0  0  0  0  0
   49.7695   31.1320   39.1941 H   0  0  0  0  0  0  0  0  0  0  0  0
   47.5009   33.3637   43.0926 H   0  0  0  0  0  0  0  0  0  0  0  0
   49.0251   34.3576   43.4715 H   0  0  0  0  0  0  0  0  0  0  0  0
   48.0077   36.0770   42.7500 H   0  0  0  0  0  0  0  0  0  0  0  0
   48.0713   35.3314   41.1075 H   0  0  0  0  0  0  0  0  0  0  0  0
   45.9474   36.2036   43.9652 H   0  0  0  0  0  0  0  0  0  0  0  0
   43.4474   35.9365   43.8103 H   0  0  0  0  0  0  0  0  0  0  0  0
   43.9375   33.7609   40.1931 H   0  0  0  0  0  0  0  0  0  0  0  0
   54.9501   30.5635   40.4471 H   0  0  0  0  0  0  0  0  0  0  0  0
   55.6926   28.6094   41.8317 H   0  0  0  0  0  0  0  0  0  0  0  0
   54.1379   27.2881   43.1706 H   0  0  0  0  0  0  0  0  0  0  0  0
   51.7089   27.8723   43.1907 H   0  0  0  0  0  0  0  0  0  0  0  0
  1  5  1  0
  1  6  1  0
  2  1  2  0
  3  2  1  0
  3  4  2  0
  4  5  1  0
  7  6  1  0
  8  7  1  0
  8  9  2  0
 10  9  1  0
 11 10  2  0
 12 13  2  0
 12 11  1  0
 13  8  1  0
 14  4  1  0
 14 15  1  0
 15 20  1  0
 16 15  2  0
 16 17  1  0
 17 18  2  0
 18 19  1  0
 20 19  2  0
  2 21  1  0
  3 22  1  0
  6 23  1  0
  6 24  1  0
  7 25  1  0
  7 26  1  0
  9 27  1  0
 10 28  1  0
 12 29  1  0
 16 30  1  0
 17 31  1  0
 18 32  1  0
 19 33  1  0
M  ISO  8  21  14  22  14  23   8  24   8  25   8  26   8  27  14  28  14
M  ISO  5  29  14  30  14  31  14  32  14  33  14
M  END
>  <minimizedAffinity>  (1) 
-3.7085917

>  <minimizedRMSD>  (1) 
1.81213355

$$$$
