
     RDKit          3D

 34 36  0  0  0  0  0  0  0  0999 V2000
   49.4600   33.2680   41.4640 C   0  0  0  0  0  0  0  0  0  0  0  0
   48.9440   32.6180   40.3190 C   0  0  0  0  0  0  0  0  0  0  0  0
   49.5800   31.5990   39.7070 C   0  0  0  0  0  0  0  0  0  0  0  0
   50.8260   31.2000   40.2850 C   0  0  0  0  0  0  0  0  0  0  0  0
   51.0580   32.2980   41.6940 S   0  0  0  0  0  0  0  0  0  0  0  0
   49.0750   34.3140   42.3370 C   0  0  0  0  0  0  0  0  0  0  0  0
   48.1180   35.3110   41.8230 C   0  0  0  0  0  0  0  0  0  0  0  0
   46.7460   34.8900   42.0730 C   0  0  0  0  0  0  0  0  0  0  0  0
   46.2550   34.8090   43.3580 C   0  0  0  0  0  0  0  0  0  0  0  0
   44.9260   34.3950   43.5290 C   0  0  0  0  0  0  0  0  0  0  0  0
   44.2030   34.1000   42.4100 N   0  0  0  0  0  0  0  0  0  0  0  0
   44.7330   34.1970   41.1760 C   0  0  0  0  0  0  0  0  0  0  0  0
   45.9740   34.5830   41.0220 N   0  0  0  0  0  0  0  0  0  0  0  0
   51.6110   30.2540   39.8790 O   0  0  0  0  0  0  0  0  0  0  0  0
   54.3880   30.5740   38.7280 Cl  0  0  0  0  0  0  0  0  0  0  0  0
   54.0200   29.6310   40.1790 C   0  0  0  0  0  0  0  0  0  0  0  0
   52.6640   29.6400   40.5030 C   0  0  0  0  0  0  0  0  0  0  0  0
   52.2620   28.9340   41.6190 C   0  0  0  0  0  0  0  0  0  0  0  0
   53.1550   28.2250   42.4180 C   0  0  0  0  0  0  0  0  0  0  0  0
   54.4990   28.2460   42.0540 C   0  0  0  0  0  0  0  0  0  0  0  0
   54.9110   28.9430   40.9480 C   0  0  0  0  0  0  0  0  0  0  0  0
   56.5820   29.0160   40.4280 Cl  0  0  0  0  0  0  0  0  0  0  0  0
   47.9815   32.9588   39.9098 H   0  0  0  0  0  0  0  0  0  0  0  0
   49.1655   31.1040   38.8164 H   0  0  0  0  0  0  0  0  0  0  0  0
   48.6230   33.8513   43.2267 H   0  0  0  0  0  0  0  0  0  0  0  0
   49.9996   34.8810   42.5205 H   0  0  0  0  0  0  0  0  0  0  0  0
   48.2671   35.4285   40.7395 H   0  0  0  0  0  0  0  0  0  0  0  0
   48.2929   36.2660   42.3401 H   0  0  0  0  0  0  0  0  0  0  0  0
   46.8860   35.0613   44.2230 H   0  0  0  0  0  0  0  0  0  0  0  0
   44.4814   34.3109   44.5316 H   0  0  0  0  0  0  0  0  0  0  0  0
   44.1215   33.9512   40.2953 H   0  0  0  0  0  0  0  0  0  0  0  0
   51.1952   28.9315   41.8873 H   0  0  0  0  0  0  0  0  0  0  0  0
   52.8119   27.6694   43.3032 H   0  0  0  0  0  0  0  0  0  0  0  0
   55.2364   27.6985   42.6593 H   0  0  0  0  0  0  0  0  0  0  0  0
  1  5  1  0
  1  6  1  0
  2  1  2  0
  3  4  2  0
  3  2  1  0
  4  5  1  0
  7  8  1  0
  7  6  1  0
  8  9  2  0
  9 10  1  0
 11 10  2  0
 12 11  1  0
 13 12  2  0
 13  8  1  0
 14  4  1  0
 14 17  1  0
 15 16  1  0
 16 17  2  0
 16 21  1  0
 17 18  1  0
 18 19  2  0
 20 19  1  0
 21 20  2  0
 22 21  1  0
  2 23  1  0
  3 24  1  0
  6 25  1  0
  6 26  1  0
  7 27  1  0
  7 28  1  0
  9 29  1  0
 10 30  1  0
 12 31  1  0
 18 32  1  0
 19 33  1  0
 20 34  1  0
M  ISO  8  23  14  24  14  25   8  26   8  27   8  28   8  29  14  30  14
M  ISO  4  31  14  32  14  33  14  34  14
M  END
>  <minimizedAffinity>  (1) 
-3.66278648

>  <minimizedRMSD>  (1) 
2.32850671

$$$$
