
     RDKit          3D

 30 32  0  0  0  0  0  0  0  0999 V2000
   44.8220   32.8720   41.2350 Br  0  0  0  0  0  0  0  0  0  0  0  0
   46.4440   33.8710   40.9510 C   0  0  0  0  0  0  0  0  0  0  0  0
   46.9080   34.7210   41.9250 C   0  0  0  0  0  0  0  0  0  0  0  0
   48.0790   35.4530   41.7380 C   0  0  0  0  0  0  0  0  0  0  0  0
   48.7510   35.3010   40.5600 C   0  0  0  0  0  0  0  0  0  0  0  0
   48.2470   34.4380   39.6110 C   0  0  0  0  0  0  0  0  0  0  0  0
   47.1090   33.7100   39.7640 C   0  0  0  0  0  0  0  0  0  0  0  0
   46.6560   32.8370   38.7320 N   0  0  0  0  0  0  0  0  0  0  0  0
   45.8550   33.4770   37.8410 C   0  0  0  0  0  0  0  0  0  0  0  0
   45.3300   32.7580   36.7680 C   0  0  0  0  0  0  0  0  0  0  0  0
   45.6750   31.4240   36.6980 C   0  0  0  0  0  0  0  0  0  0  0  0
   45.2140   30.7300   35.7290 O   0  0  0  0  0  0  0  0  0  0  0  0
   46.4690   30.7990   37.5860 N   0  0  0  0  0  0  0  0  0  0  0  0
   46.9560   31.5300   38.6060 C   0  0  0  0  0  0  0  0  0  0  0  0
   47.7130   31.1250   39.5350 O   0  0  0  0  0  0  0  0  0  0  0  0
   45.6500   34.0400   45.2960 C   0  0  0  0  0  0  0  0  0  0  0  0
   44.7150   35.0880   45.5110 C   0  0  0  0  0  0  0  0  0  0  0  0
   44.5370   36.0130   44.4830 C   0  0  0  0  0  0  0  0  0  0  0  0
   45.2590   35.8620   43.3460 N   0  0  0  0  0  0  0  0  0  0  0  0
   46.1490   34.8470   43.1690 C   0  0  0  0  0  0  0  0  0  0  0  0
   46.3260   33.9550   44.1510 N   0  0  0  0  0  0  0  0  0  0  0  0
   48.4511   36.1339   42.5177 H   0  0  0  0  0  0  0  0  0  0  0  0
   49.6802   35.8585   40.3709 H   0  0  0  0  0  0  0  0  0  0  0  0
   48.8022   34.3311   38.6674 H   0  0  0  0  0  0  0  0  0  0  0  0
   45.6242   34.5455   37.9640 H   0  0  0  0  0  0  0  0  0  0  0  0
   44.6767   33.2285   36.0185 H   0  0  0  0  0  0  0  0  0  0  0  0
   46.6957   29.7989   37.4891 H   0  0  0  0  0  0  0  0  0  0  0  0
   45.8176   33.2905   46.0835 H   0  0  0  0  0  0  0  0  0  0  0  0
   44.1527   35.1667   46.4531 H   0  0  0  0  0  0  0  0  0  0  0  0
   43.8270   36.8460   44.5923 H   0  0  0  0  0  0  0  0  0  0  0  0
  2  1  1  0
  2  3  2  0
  3 20  1  0
  4  3  1  0
  5  4  2  0
  6  7  2  0
  6  5  1  0
  7  2  1  0
  8  7  1  0
  9  8  1  0
 10  9  2  0
 11 10  1  0
 11 13  1  0
 12 11  2  0
 13 14  1  0
 14  8  1  0
 14 15  2  0
 16 17  2  0
 18 17  1  0
 19 18  2  0
 20 19  1  0
 20 21  2  0
 21 16  1  0
  4 22  1  0
  5 23  1  0
  6 24  1  0
  9 25  1  0
 10 26  1  0
 13 27  1  0
 16 28  1  0
 17 29  1  0
 18 30  1  0
M  ISO  8  22  14  23  14  24  14  25  14  26  14  27   9  28  14  29  14
M  ISO  1  30  14
M  END
>  <minimizedAffinity>  (1) 
-5.3907342

>  <minimizedRMSD>  (1) 
0.595586121

$$$$
