
     RDKit          3D

 21 21  0  0  0  0  0  0  0  0999 V2000
   45.8590   33.8580   45.5450 C   0  0  0  0  0  0  0  0  0  0  0  0
   44.9330   34.9110   45.4290 C   0  0  0  0  0  0  0  0  0  0  0  0
   44.9130   35.6000   44.2400 C   0  0  0  0  0  0  0  0  0  0  0  0
   45.7620   35.2450   43.2530 N   0  0  0  0  0  0  0  0  0  0  0  0
   46.6400   34.2220   43.4050 C   0  0  0  0  0  0  0  0  0  0  0  0
   46.6920   33.5250   44.5510 N   0  0  0  0  0  0  0  0  0  0  0  0
   44.1310   35.1300   46.5700 N   0  0  0  0  0  0  0  0  0  0  0  0
   47.5750   33.8320   42.3160 C   0  0  0  0  0  0  0  0  0  0  0  0
   47.6560   34.8110   41.3340 O   0  0  0  0  0  0  0  0  0  0  0  0
   48.4570   32.6780   40.0570 O   0  0  0  0  0  0  0  0  0  0  0  0
   47.8220   34.0480   39.8320 P   0  0  0  0  0  0  0  0  0  0  0  0
   48.8050   35.0430   38.8700 O   0  0  0  0  0  0  0  0  0  0  0  0
   46.3160   33.7950   39.0870 O   0  0  0  0  0  0  0  0  0  0  0  0
   45.9000   33.2884   46.4852 H   0  0  0  0  0  0  0  0  0  0  0  0
   44.2107   36.4340   44.0941 H   0  0  0  0  0  0  0  0  0  0  0  0
   43.4272   35.8821   46.5682 H   0  0  0  0  0  0  0  0  0  0  0  0
   44.2496   34.5377   47.4043 H   0  0  0  0  0  0  0  0  0  0  0  0
   48.5755   33.6734   42.7448 H   0  0  0  0  0  0  0  0  0  0  0  0
   47.1950   32.9103   41.8512 H   0  0  0  0  0  0  0  0  0  0  0  0
   49.3678   35.6127   39.4520 H   0  0  0  0  0  0  0  0  0  0  0  0
   45.6199   33.6781   39.7812 H   0  0  0  0  0  0  0  0  0  0  0  0
  2  1  2  0
  2  7  1  0
  3  2  1  0
  4  5  1  0
  4  3  2  0
  5  6  2  0
  6  1  1  0
  8  5  1  0
  9  8  1  0
 11 10  2  0
 11  9  1  0
 12 11  1  0
 13 11  1  0
  1 14  1  0
  3 15  1  0
  7 16  1  0
  7 17  1  0
  8 18  1  0
  8 19  1  0
 12 20  1  0
 13 21  1  0
M  ISO  6  14  14  15  14  18   8  19   8  20   3  21   3
M  END
>  <minimizedAffinity>  (1) 
-4.56933546

>  <minimizedRMSD>  (1) 
6.16388941

$$$$
