
     RDKit          3D

 31 32  0  0  0  0  0  0  0  0999 V2000
   44.4850   35.7740   45.0840 C   0  0  0  0  0  0  0  0  0  0  0  0
   45.1220   35.6840   43.8160 C   0  0  0  0  0  0  0  0  0  0  0  0
   45.9470   34.6080   43.5950 C   0  0  0  0  0  0  0  0  0  0  0  0
   46.1080   33.7080   44.5700 N   0  0  0  0  0  0  0  0  0  0  0  0
   45.5010   33.8070   45.7620 C   0  0  0  0  0  0  0  0  0  0  0  0
   44.6790   34.8400   46.0400 N   0  0  0  0  0  0  0  0  0  0  0  0
   44.8010   36.7480   42.9470 N   0  0  0  0  0  0  0  0  0  0  0  0
   45.6780   32.8090   46.8480 C   0  0  0  0  0  0  0  0  0  0  0  0
   47.1260   32.3610   46.9510 C   0  0  0  0  0  0  0  0  0  0  0  0
   47.5810   32.4080   48.3940 C   0  0  0  0  0  0  0  0  0  0  0  0
   48.6580   31.3760   48.6600 C   0  0  0  0  0  0  0  0  0  0  0  0
   48.1190   29.9750   48.5280 C   0  0  0  0  0  0  0  0  0  0  0  0
   46.8720   30.0420   47.6520 C   0  0  0  0  0  0  0  0  0  0  0  0
   47.2020   30.9300   46.4710 C   0  0  0  0  0  0  0  0  0  0  0  0
   43.8186   36.6243   45.2912 H   0  0  0  0  0  0  0  0  0  0  0  0
   46.4660   34.4892   42.6325 H   0  0  0  0  0  0  0  0  0  0  0  0
   45.2083   36.7815   42.0015 H   0  0  0  0  0  0  0  0  0  0  0  0
   44.1594   37.4913   43.2580 H   0  0  0  0  0  0  0  0  0  0  0  0
   45.3732   33.2606   47.8036 H   0  0  0  0  0  0  0  0  0  0  0  0
   45.0568   31.9306   46.6188 H   0  0  0  0  0  0  0  0  0  0  0  0
   47.7662   33.0211   46.3474 H   0  0  0  0  0  0  0  0  0  0  0  0
   47.9810   33.4092   48.6122 H   0  0  0  0  0  0  0  0  0  0  0  0
   46.7183   32.1873   49.0398 H   0  0  0  0  0  0  0  0  0  0  0  0
   49.4744   31.5154   47.9361 H   0  0  0  0  0  0  0  0  0  0  0  0
   49.0225   31.5121   49.6889 H   0  0  0  0  0  0  0  0  0  0  0  0
   48.8727   29.3256   48.0587 H   0  0  0  0  0  0  0  0  0  0  0  0
   47.8749   29.5599   49.5170 H   0  0  0  0  0  0  0  0  0  0  0  0
   46.6024   29.0345   47.3023 H   0  0  0  0  0  0  0  0  0  0  0  0
   46.0188   30.4450   48.2173 H   0  0  0  0  0  0  0  0  0  0  0  0
   46.4758   30.7653   45.6614 H   0  0  0  0  0  0  0  0  0  0  0  0
   48.2048   30.7025   46.0804 H   0  0  0  0  0  0  0  0  0  0  0  0
  1  6  2  0
  2  1  1  0
  3  2  2  0
  3  4  1  0
  4  5  2  0
  5  6  1  0
  5  8  1  0
  7  2  1  0
  8  9  1  0
  9 10  1  0
 10 11  1  0
 12 11  1  0
 13 12  1  0
 14  9  1  0
 14 13  1  0
  1 15  1  0
  3 16  1  0
  7 17  1  0
  7 18  1  0
  8 19  1  0
  8 20  1  0
  9 21  1  0
 10 22  1  0
 10 23  1  0
 11 24  1  0
 11 25  1  0
 12 26  1  0
 12 27  1  0
 13 28  1  0
 13 29  1  0
 14 30  1  0
 14 31  1  0
M  ISO  8  15  14  16  14  19   8  20   8  21  13  22  13  23  13  24  13
M  ISO  7  25  13  26  13  27  13  28  13  29  13  30  13  31  13
M  END
>  <minimizedAffinity>  (1) 
-4.5054493

>  <minimizedRMSD>  (1) 
1.21755612

$$$$
