
     RDKit          3D

 22 21  0  0  0  0  0  0  0  0999 V2000
   44.6800   36.0120   44.1140 C   0  0  0  0  0  0  0  0  0  0  0  0
   45.5450   35.4340   43.1790 C   0  0  0  0  0  0  0  0  0  0  0  0
   46.2560   34.2730   43.5550 C   0  0  0  0  0  0  0  0  0  0  0  0
   46.0720   33.7710   44.7960 N   0  0  0  0  0  0  0  0  0  0  0  0
   45.2220   34.3720   45.6630 C   0  0  0  0  0  0  0  0  0  0  0  0
   44.5410   35.4760   45.3160 N   0  0  0  0  0  0  0  0  0  0  0  0
   46.1010   32.8810   47.3690 C   0  0  0  0  0  0  0  0  0  0  0  0
   47.0620   32.5140   46.6950 O   0  0  0  0  0  0  0  0  0  0  0  0
   45.0390   33.8300   46.9910 N   0  0  0  0  0  0  0  0  0  0  0  0
   44.8840   31.3240   48.6810 C   0  0  0  0  0  0  0  0  0  0  0  0
   44.8730   30.5560   47.6660 O   0  0  0  0  0  0  0  0  0  0  0  0
   45.5400   32.6640   48.6580 N   0  0  0  0  0  0  0  0  0  0  0  0
   44.1126   36.9163   43.8490 H   0  0  0  0  0  0  0  0  0  0  0  0
   45.6682   35.8720   42.1775 H   0  0  0  0  0  0  0  0  0  0  0  0
   46.9467   33.7864   42.8506 H   0  0  0  0  0  0  0  0  0  0  0  0
   44.2516   34.0802   47.6061 H   0  0  0  0  0  0  0  0  0  0  0  0
   44.8753   30.7183   49.5992 H   0  0  0  0  0  0  0  0  0  0  0  0
   45.7911   31.9458   48.6605 H   0  0  0  0  0  0  0  0  0  0  0  0
   43.9950   31.9716   48.6605 H   0  0  0  0  0  0  0  0  0  0  0  0
   44.8595   29.6127   47.9661 H   0  0  0  0  0  0  0  0  0  0  0  0
   44.6763   33.1533   48.9328 H   0  0  0  0  0  0  0  0  0  0  0  0
   45.9975   32.0176   49.3166 H   0  0  0  0  0  0  0  0  0  0  0  0
  1  6  2  0
  2  3  2  0
  2  1  1  0
  3  4  1  0
  4  5  2  0
  5  9  1  0
  6  5  1  0
  7 12  1  0
  8  7  2  0
  9  7  1  0
 11 10  1  0
  1 13  1  0
  2 14  1  0
  3 15  1  0
  9 16  1  0
 10 17  1  0
 10 18  1  0
 10 19  1  0
 11 20  1  0
 12 21  1  0
 12 22  1  0
M  ISO  7  13  14  14  14  15  14  17   8  18   8  19   8  20   3
M  END
>  <minimizedAffinity>  (1) 
-5.23385525

>  <minimizedRMSD>  (1) 
0.342418551

$$$$
