
     RDKit          3D

 19 19  0  0  0  0  0  0  0  0999 V2000
   44.5600   35.5000   45.0740 C   0  0  0  0  0  0  0  0  0  0  0  0
   45.1050   35.6290   43.7740 C   0  0  0  0  0  0  0  0  0  0  0  0
   46.1010   34.7350   43.4070 C   0  0  0  0  0  0  0  0  0  0  0  0
   46.4850   33.8090   44.2920 N   0  0  0  0  0  0  0  0  0  0  0  0
   45.9510   33.7050   45.5200 C   0  0  0  0  0  0  0  0  0  0  0  0
   44.9750   34.5530   45.9350 N   0  0  0  0  0  0  0  0  0  0  0  0
   44.5560   36.6830   42.9910 N   0  0  0  0  0  0  0  0  0  0  0  0
   46.3900   32.6690   46.4940 C   0  0  0  0  0  0  0  0  0  0  0  0
   45.0070   31.6950   48.3760 C   0  0  0  0  0  0  0  0  0  0  0  0
   45.7830   32.2710   49.1980 O   0  0  0  0  0  0  0  0  0  0  0  0
   45.2870   31.8770   46.9890 N   0  0  0  0  0  0  0  0  0  0  0  0
   43.7706   36.1974   45.3910 H   0  0  0  0  0  0  0  0  0  0  0  0
   46.5641   34.7869   42.4106 H   0  0  0  0  0  0  0  0  0  0  0  0
   44.8978   36.8447   42.0329 H   0  0  0  0  0  0  0  0  0  0  0  0
   43.8169   37.2841   43.3824 H   0  0  0  0  0  0  0  0  0  0  0  0
   47.1105   32.0012   45.9990 H   0  0  0  0  0  0  0  0  0  0  0  0
   46.8441   33.1859   47.3523 H   0  0  0  0  0  0  0  0  0  0  0  0
   44.1582   31.0840   48.7167 H   0  0  0  0  0  0  0  0  0  0  0  0
   44.6697   31.4192   46.3033 H   0  0  0  0  0  0  0  0  0  0  0  0
  1  6  2  0
  2  1  1  0
  3  2  2  0
  3  4  1  0
  4  5  2  0
  5  6  1  0
  5  8  1  0
  7  2  1  0
  8 11  1  0
  9 10  2  0
 11  9  1  0
  1 12  1  0
  3 13  1  0
  7 14  1  0
  7 15  1  0
  8 16  1  0
  8 17  1  0
  9 18  1  0
 11 19  1  0
M  ISO  5  12  14  13  14  16   8  17   8  18   6
M  END
>  <minimizedAffinity>  (1) 
-4.17441082

>  <minimizedRMSD>  (1) 
1.39911079

$$$$
