
     RDKit          3D

 22 23  0  0  0  0  0  0  0  0999 V2000
   44.8500   34.9010   45.3830 C   0  0  0  0  0  0  0  0  0  0  0  0
   44.5810   34.9030   43.9890 C   0  0  0  0  0  0  0  0  0  0  0  0
   45.1880   33.9320   43.2270 C   0  0  0  0  0  0  0  0  0  0  0  0
   45.9930   33.0450   43.8280 N   0  0  0  0  0  0  0  0  0  0  0  0
   46.2350   33.0610   45.1490 C   0  0  0  0  0  0  0  0  0  0  0  0
   45.6590   33.9950   45.9320 N   0  0  0  0  0  0  0  0  0  0  0  0
   43.6980   35.9320   43.5540 N   0  0  0  0  0  0  0  0  0  0  0  0
   47.1270   32.0790   45.8200 C   0  0  0  0  0  0  0  0  0  0  0  0
   46.4110   31.4750   46.9170 C   0  0  0  0  0  0  0  0  0  0  0  0
   45.5170   30.4070   46.8940 C   0  0  0  0  0  0  0  0  0  0  0  0
   44.9490   29.9950   48.0710 C   0  0  0  0  0  0  0  0  0  0  0  0
   45.3210   30.7000   49.2470 C   0  0  0  0  0  0  0  0  0  0  0  0
   46.5420   32.0130   48.6270 S   0  0  0  0  0  0  0  0  0  0  0  0
   44.3811   35.6628   46.0232 H   0  0  0  0  0  0  0  0  0  0  0  0
   45.0154   33.8843   42.1417 H   0  0  0  0  0  0  0  0  0  0  0  0
   43.4474   36.0086   42.5579 H   0  0  0  0  0  0  0  0  0  0  0  0
   43.3099   36.5997   44.2355 H   0  0  0  0  0  0  0  0  0  0  0  0
   47.4277   31.3017   45.1021 H   0  0  0  0  0  0  0  0  0  0  0  0
   48.0272   32.5874   46.1958 H   0  0  0  0  0  0  0  0  0  0  0  0
   45.2713   29.9032   45.9475 H   0  0  0  0  0  0  0  0  0  0  0  0
   44.2375   29.1567   48.1038 H   0  0  0  0  0  0  0  0  0  0  0  0
   44.9801   30.5251   50.2781 H   0  0  0  0  0  0  0  0  0  0  0  0
  1  6  2  0
  2  1  1  0
  3  4  1  0
  3  2  2  0
  4  5  2  0
  5  8  1  0
  5  6  1  0
  7  2  1  0
  8  9  1  0
  9 13  1  0
 10  9  2  0
 10 11  1  0
 11 12  2  0
 13 12  1  0
  1 14  1  0
  3 15  1  0
  7 16  1  0
  7 17  1  0
  8 18  1  0
  8 19  1  0
 10 20  1  0
 11 21  1  0
 12 22  1  0
M  ISO  7  14  14  15  14  18   8  19   8  20  14  21  14  22  14
M  END
>  <minimizedAffinity>  (1) 
-4.03736353

>  <minimizedRMSD>  (1) 
1.72304177

$$$$
