
     RDKit          3D

 28 29  0  0  0  0  0  0  0  0999 V2000
   44.9530   31.7860   43.3110 C   0  0  0  0  0  0  0  0  0  0  0  0
   45.1290   35.2230   44.5790 C   0  0  0  0  0  0  0  0  0  0  0  0
   44.9100   36.0100   43.4320 C   0  0  0  0  0  0  0  0  0  0  0  0
   44.7050   35.3590   42.2370 C   0  0  0  0  0  0  0  0  0  0  0  0
   44.7230   33.9970   42.2220 N   0  0  0  0  0  0  0  0  0  0  0  0
   44.9350   33.2710   43.3370 C   0  0  0  0  0  0  0  0  0  0  0  0
   45.1420   33.8920   44.5380 N   0  0  0  0  0  0  0  0  0  0  0  0
   44.9240   37.3970   43.6260 N   0  0  0  0  0  0  0  0  0  0  0  0
   45.9850   31.2540   44.2750 C   0  0  0  0  0  0  0  0  0  0  0  0
   47.3240   31.1010   43.9750 C   0  0  0  0  0  0  0  0  0  0  0  0
   47.9450   30.5860   45.1170 C   0  0  0  0  0  0  0  0  0  0  0  0
   46.9070   30.4620   46.0490 C   0  0  0  0  0  0  0  0  0  0  0  0
   45.8070   30.8590   45.5120 O   0  0  0  0  0  0  0  0  0  0  0  0
   47.0580   29.9830   47.3450 O   0  0  0  0  0  0  0  0  0  0  0  0
   46.7310   32.3880   48.3500 O   0  0  0  0  0  0  0  0  0  0  0  0
   46.8080   30.9150   48.7320 P   0  0  0  0  0  0  0  0  0  0  0  0
   48.1330   30.6390   49.7750 O   0  0  0  0  0  0  0  0  0  0  0  0
   45.4060   30.5370   49.5710 O   0  0  0  0  0  0  0  0  0  0  0  0
   43.9608   31.4067   43.5969 H   0  0  0  0  0  0  0  0  0  0  0  0
   45.2083   31.4506   42.2950 H   0  0  0  0  0  0  0  0  0  0  0  0
   45.2953   35.7256   45.5432 H   0  0  0  0  0  0  0  0  0  0  0  0
   44.5300   35.9275   41.3117 H   0  0  0  0  0  0  0  0  0  0  0  0
   44.7704   38.0302   42.8283 H   0  0  0  0  0  0  0  0  0  0  0  0
   45.0879   37.7838   44.5664 H   0  0  0  0  0  0  0  0  0  0  0  0
   47.8106   31.3394   43.0177 H   0  0  0  0  0  0  0  0  0  0  0  0
   49.0074   30.3352   45.2526 H   0  0  0  0  0  0  0  0  0  0  0  0
   47.8311   30.7019   50.7158 H   0  0  0  0  0  0  0  0  0  0  0  0
   45.5810   30.5842   50.5443 H   0  0  0  0  0  0  0  0  0  0  0  0
  1  6  1  0
  1  9  1  0
  3  8  1  0
  3  2  2  0
  4  3  1  0
  5  4  2  0
  5  6  1  0
  6  7  2  0
  7  2  1  0
  9 13  1  0
 10  9  2  0
 10 11  1  0
 11 12  2  0
 12 14  1  0
 13 12  1  0
 14 16  1  0
 15 16  2  0
 16 18  1  0
 16 17  1  0
  1 19  1  0
  1 20  1  0
  2 21  1  0
  4 22  1  0
  8 23  1  0
  8 24  1  0
 10 25  1  0
 11 26  1  0
 17 27  1  0
 18 28  1  0
M  ISO  8  19   8  20   8  21  14  22  14  25  14  26  14  27   3  28   3
M  END
>  <minimizedAffinity>  (1) 
-4.60782957

>  <minimizedRMSD>  (1) 
2.91181588

$$$$
