
     RDKit          3D

 35 37  0  0  0  0  0  0  0  0999 V2000
   47.0690   30.8790   43.6230 C   0  0  0  0  0  0  0  0  0  0  0  0
   48.1910   30.5210   44.3400 C   0  0  0  0  0  0  0  0  0  0  0  0
   47.7710   29.6000   45.3050 C   0  0  0  0  0  0  0  0  0  0  0  0
   46.4090   29.4540   45.1110 C   0  0  0  0  0  0  0  0  0  0  0  0
   46.0830   30.2190   44.1310 O   0  0  0  0  0  0  0  0  0  0  0  0
   44.3370   28.1530   45.3850 C   0  0  0  0  0  0  0  0  0  0  0  0
   45.5330   28.5820   45.8970 C   0  0  0  0  0  0  0  0  0  0  0  0
   45.9110   28.1820   47.1730 C   0  0  0  0  0  0  0  0  0  0  0  0
   45.1540   27.3630   47.9860 C   0  0  0  0  0  0  0  0  0  0  0  0
   43.9480   26.9270   47.4770 C   0  0  0  0  0  0  0  0  0  0  0  0
   43.5710   27.3220   46.2100 C   0  0  0  0  0  0  0  0  0  0  0  0
   43.8050   28.6170   43.7950 S   0  0  0  0  0  0  0  0  0  0  0  0
   44.2900   27.6490   42.7420 O   0  0  0  0  0  0  0  0  0  0  0  0
   42.2900   28.6160   43.8280 O   0  0  0  0  0  0  0  0  0  0  0  0
   47.1270   31.8640   42.4880 C   0  0  0  0  0  0  0  0  0  0  0  0
   45.1320   34.3080   44.3460 C   0  0  0  0  0  0  0  0  0  0  0  0
   45.3300   35.5000   43.6510 C   0  0  0  0  0  0  0  0  0  0  0  0
   46.1500   35.4710   42.5410 C   0  0  0  0  0  0  0  0  0  0  0  0
   46.7120   34.2930   42.1910 N   0  0  0  0  0  0  0  0  0  0  0  0
   46.4980   33.1560   42.8880 C   0  0  0  0  0  0  0  0  0  0  0  0
   45.6940   33.1630   43.9860 N   0  0  0  0  0  0  0  0  0  0  0  0
   44.6660   36.6500   44.1510 N   0  0  0  0  0  0  0  0  0  0  0  0
   49.2161   30.8881   44.1836 H   0  0  0  0  0  0  0  0  0  0  0  0
   48.3932   29.0971   46.0600 H   0  0  0  0  0  0  0  0  0  0  0  0
   46.8759   28.5413   47.5601 H   0  0  0  0  0  0  0  0  0  0  0  0
   45.4954   27.0721   48.9904 H   0  0  0  0  0  0  0  0  0  0  0  0
   43.2954   26.2728   48.0738 H   0  0  0  0  0  0  0  0  0  0  0  0
   42.6066   26.9606   45.8237 H   0  0  0  0  0  0  0  0  0  0  0  0
   44.3105   29.8486   43.4716 H   0  0  0  0  0  0  0  0  0  0  0  0
   46.5884   31.4514   41.6222 H   0  0  0  0  0  0  0  0  0  0  0  0
   48.1800   32.0456   42.2267 H   0  0  0  0  0  0  0  0  0  0  0  0
   44.4806   34.3181   45.2323 H   0  0  0  0  0  0  0  0  0  0  0  0
   46.3410   36.3831   41.9565 H   0  0  0  0  0  0  0  0  0  0  0  0
   44.7778   37.5568   43.6754 H   0  0  0  0  0  0  0  0  0  0  0  0
   44.0722   36.5780   44.9895 H   0  0  0  0  0  0  0  0  0  0  0  0
  1  5  1  0
  1  2  2  0
  2  3  1  0
  4  3  2  0
  4  7  1  0
  5  4  1  0
  6  7  2  0
  6 11  1  0
  7  8  1  0
  8  9  2  0
 10  9  1  0
 11 10  2  0
 12 14  2  0
 12  6  1  0
 13 12  2  0
 15 20  1  0
 15  1  1  0
 17 22  1  0
 17 16  2  0
 18 17  1  0
 19 18  2  0
 19 20  1  0
 20 21  2  0
 21 16  1  0
  2 23  1  0
  3 24  1  0
  8 25  1  0
  9 26  1  0
 10 27  1  0
 11 28  1  0
 12 29  1  0
 15 30  1  0
 15 31  1  0
 16 32  1  0
 18 33  1  0
 22 34  1  0
 22 35  1  0
M  ISO  8  23  14  24  14  25  14  26  14  27  14  28  14  29  11  30   8
M  ISO  3  31   8  32  14  33  14
M  END
>  <minimizedAffinity>  (1) 
-3.67729902

>  <minimizedRMSD>  (1) 
4.58541584

$$$$
