
     RDKit          3D

 32 34  0  0  0  0  0  0  0  0999 V2000
   45.2230   34.0200   43.2310 C   0  0  0  0  0  0  0  0  0  0  0  0
   45.3650   35.3850   43.4260 C   0  0  0  0  0  0  0  0  0  0  0  0
   44.4050   36.0220   42.6610 C   0  0  0  0  0  0  0  0  0  0  0  0
   43.7180   35.0030   42.0320 C   0  0  0  0  0  0  0  0  0  0  0  0
   44.2400   33.8900   42.4040 O   0  0  0  0  0  0  0  0  0  0  0  0
   42.6020   35.2130   41.1110 C   0  0  0  0  0  0  0  0  0  0  0  0
   42.7570   34.9690   39.7690 C   0  0  0  0  0  0  0  0  0  0  0  0
   41.7520   35.1430   38.8330 C   0  0  0  0  0  0  0  0  0  0  0  0
   40.5400   35.5970   39.3910 C   0  0  0  0  0  0  0  0  0  0  0  0
   40.3700   35.8420   40.7210 C   0  0  0  0  0  0  0  0  0  0  0  0
   41.4060   35.6430   41.5390 N   0  0  0  0  0  0  0  0  0  0  0  0
   46.0810   32.9830   43.8880 C   0  0  0  0  0  0  0  0  0  0  0  0
   49.1860   31.9120   42.2390 C   0  0  0  0  0  0  0  0  0  0  0  0
   50.0060   33.0510   42.2950 C   0  0  0  0  0  0  0  0  0  0  0  0
   49.4680   34.1690   42.9030 C   0  0  0  0  0  0  0  0  0  0  0  0
   48.2190   34.1230   43.4010 N   0  0  0  0  0  0  0  0  0  0  0  0
   47.4650   33.0110   43.3280 C   0  0  0  0  0  0  0  0  0  0  0  0
   47.9570   31.9040   42.7440 N   0  0  0  0  0  0  0  0  0  0  0  0
   51.2780   32.9440   41.7330 N   0  0  0  0  0  0  0  0  0  0  0  0
   50.2850   35.2920   42.9530 O   0  0  0  0  0  0  0  0  0  0  0  0
   46.1080   35.8739   44.0732 H   0  0  0  0  0  0  0  0  0  0  0  0
   44.2276   37.1040   42.5729 H   0  0  0  0  0  0  0  0  0  0  0  0
   43.7370   34.6145   39.4169 H   0  0  0  0  0  0  0  0  0  0  0  0
   41.8862   34.9462   37.7591 H   0  0  0  0  0  0  0  0  0  0  0  0
   39.6861   35.7624   38.7175 H   0  0  0  0  0  0  0  0  0  0  0  0
   39.4036   36.1948   41.1104 H   0  0  0  0  0  0  0  0  0  0  0  0
   46.1247   33.1825   44.9689 H   0  0  0  0  0  0  0  0  0  0  0  0
   45.6435   31.9913   43.7003 H   0  0  0  0  0  0  0  0  0  0  0  0
   49.5729   30.9991   41.7627 H   0  0  0  0  0  0  0  0  0  0  0  0
   51.9175   33.7513   41.7486 H   0  0  0  0  0  0  0  0  0  0  0  0
   51.5779   32.0577   41.3023 H   0  0  0  0  0  0  0  0  0  0  0  0
   49.9566   36.1247   43.3760 H   0  0  0  0  0  0  0  0  0  0  0  0
  1  2  2  0
  1 12  1  0
  3  2  1  0
  4  5  1  0
  4  3  2  0
  5  1  1  0
  6 11  1  0
  6  4  1  0
  7  6  2  0
  8  9  2  0
  8  7  1  0
  9 10  1  0
 10 11  2  0
 13 14  2  0
 13 18  1  0
 14 15  1  0
 15 20  1  0
 15 16  2  0
 17 16  1  0
 17 12  1  0
 18 17  2  0
 19 14  1  0
  2 21  1  0
  3 22  1  0
  7 23  1  0
  8 24  1  0
  9 25  1  0
 10 26  1  0
 12 27  1  0
 12 28  1  0
 13 29  1  0
 19 30  1  0
 19 31  1  0
 20 32  1  0
M  ISO  8  21  14  22  14  23  14  24  14  25  14  26  14  27   8  28   8
M  ISO  2  29  14  32   3
M  END
>  <minimizedAffinity>  (1) 
-6.10722733

>  <minimizedRMSD>  (1) 
1.0391984

$$$$
