
     RDKit          3D

 33 35  0  0  0  0  0  0  0  0999 V2000
   45.1750   33.8670   43.6170 C   0  0  0  0  0  0  0  0  0  0  0  0
   45.0680   35.1530   44.1050 C   0  0  0  0  0  0  0  0  0  0  0  0
   44.1450   35.8330   43.3530 C   0  0  0  0  0  0  0  0  0  0  0  0
   43.7200   34.8960   42.4130 C   0  0  0  0  0  0  0  0  0  0  0  0
   44.3510   33.8060   42.6290 O   0  0  0  0  0  0  0  0  0  0  0  0
   42.7190   35.1650   41.3760 C   0  0  0  0  0  0  0  0  0  0  0  0
   43.0250   34.9960   40.0520 C   0  0  0  0  0  0  0  0  0  0  0  0
   42.1340   35.2290   39.0110 C   0  0  0  0  0  0  0  0  0  0  0  0
   40.8750   35.6600   39.4580 C   0  0  0  0  0  0  0  0  0  0  0  0
   40.5380   35.8390   40.7710 C   0  0  0  0  0  0  0  0  0  0  0  0
   41.4780   35.5840   41.7080 N   0  0  0  0  0  0  0  0  0  0  0  0
   46.0920   32.8310   44.1910 C   0  0  0  0  0  0  0  0  0  0  0  0
   49.3200   31.8140   42.7600 C   0  0  0  0  0  0  0  0  0  0  0  0
   49.9070   33.0180   42.3760 C   0  0  0  0  0  0  0  0  0  0  0  0
   49.1820   34.1610   42.6140 C   0  0  0  0  0  0  0  0  0  0  0  0
   47.9620   34.0970   43.1950 N   0  0  0  0  0  0  0  0  0  0  0  0
   47.4360   32.8960   43.5510 C   0  0  0  0  0  0  0  0  0  0  0  0
   48.1290   31.7640   43.3270 N   0  0  0  0  0  0  0  0  0  0  0  0
   51.1820   33.0040   41.7750 N   0  0  0  0  0  0  0  0  0  0  0  0
   49.7410   35.4540   42.2330 C   0  0  0  0  0  0  0  0  0  0  0  0
   49.1850   36.1500   41.3640 O   0  0  0  0  0  0  0  0  0  0  0  0
   45.6300   35.5646   44.9563 H   0  0  0  0  0  0  0  0  0  0  0  0
   43.8161   36.8766   43.4656 H   0  0  0  0  0  0  0  0  0  0  0  0
   44.0390   34.6546   39.7964 H   0  0  0  0  0  0  0  0  0  0  0  0
   42.3883   35.0904   37.9498 H   0  0  0  0  0  0  0  0  0  0  0  0
   40.1062   35.8682   38.6993 H   0  0  0  0  0  0  0  0  0  0  0  0
   39.5319   36.1803   41.0561 H   0  0  0  0  0  0  0  0  0  0  0  0
   46.1993   33.0044   45.2719 H   0  0  0  0  0  0  0  0  0  0  0  0
   45.6608   31.8369   44.0018 H   0  0  0  0  0  0  0  0  0  0  0  0
   49.8664   30.8755   42.5851 H   0  0  0  0  0  0  0  0  0  0  0  0
   51.6712   32.1100   41.6257 H   0  0  0  0  0  0  0  0  0  0  0  0
   51.6245   33.8878   41.4852 H   0  0  0  0  0  0  0  0  0  0  0  0
   50.6600   35.8159   42.7172 H   0  0  0  0  0  0  0  0  0  0  0  0
  1  2  2  0
  1 12  1  0
  3  2  1  0
  4  5  1  0
  4  3  2  0
  5  1  1  0
  6 11  1  0
  6  4  1  0
  7  6  2  0
  8  9  2  0
  8  7  1  0
  9 10  1  0
 10 11  2  0
 13 18  2  0
 14 15  2  0
 14 13  1  0
 15 16  1  0
 16 17  2  0
 17 12  1  0
 18 17  1  0
 19 14  1  0
 20 15  1  0
 21 20  2  0
  2 22  1  0
  3 23  1  0
  7 24  1  0
  8 25  1  0
  9 26  1  0
 10 27  1  0
 12 28  1  0
 12 29  1  0
 13 30  1  0
 19 31  1  0
 19 32  1  0
 20 33  1  0
M  ISO  8  22  14  23  14  24  14  25  14  26  14  27  14  28   8  29   8
M  ISO  2  30  14  33   6
M  END
>  <minimizedAffinity>  (1) 
-5.62869644

>  <minimizedRMSD>  (1) 
1.18442392

$$$$
