
     RDKit          3D

 27 28  0  0  0  0  0  0  0  0999 V2000
   44.9790   36.2050   43.1390 C   0  0  0  0  0  0  0  0  0  0  0  0
   46.1000   35.9120   42.3500 C   0  0  0  0  0  0  0  0  0  0  0  0
   46.8610   34.7770   42.6900 C   0  0  0  0  0  0  0  0  0  0  0  0
   46.4730   34.0200   43.7650 N   0  0  0  0  0  0  0  0  0  0  0  0
   45.3830   34.3450   44.4970 C   0  0  0  0  0  0  0  0  0  0  0  0
   44.6400   35.4420   44.1740 N   0  0  0  0  0  0  0  0  0  0  0  0
   46.0420   32.6400   46.0800 C   0  0  0  0  0  0  0  0  0  0  0  0
   47.2030   32.5280   45.6140 O   0  0  0  0  0  0  0  0  0  0  0  0
   45.0390   33.5160   45.6010 N   0  0  0  0  0  0  0  0  0  0  0  0
   45.4230   30.4250   47.0620 C   0  0  0  0  0  0  0  0  0  0  0  0
   45.7150   31.7710   47.2290 C   0  0  0  0  0  0  0  0  0  0  0  0
   45.6890   32.2610   48.5040 C   0  0  0  0  0  0  0  0  0  0  0  0
   45.3960   31.5290   49.6400 C   0  0  0  0  0  0  0  0  0  0  0  0
   45.1050   30.1890   49.4540 C   0  0  0  0  0  0  0  0  0  0  0  0
   45.1210   29.6540   48.1860 C   0  0  0  0  0  0  0  0  0  0  0  0
   45.4410   29.7230   45.4460 S   0  0  0  0  0  0  0  0  0  0  0  0
   44.3400   28.6660   45.4510 O   0  0  0  0  0  0  0  0  0  0  0  0
   46.7240   28.9910   45.1660 O   0  0  0  0  0  0  0  0  0  0  0  0
   44.3661   37.0857   42.8966 H   0  0  0  0  0  0  0  0  0  0  0  0
   46.3756   36.5467   41.4949 H   0  0  0  0  0  0  0  0  0  0  0  0
   47.7505   34.5029   42.1037 H   0  0  0  0  0  0  0  0  0  0  0  0
   44.1039   33.5518   46.0314 H   0  0  0  0  0  0  0  0  0  0  0  0
   45.9207   33.3279   48.6383 H   0  0  0  0  0  0  0  0  0  0  0  0
   45.3943   31.9881   50.6396 H   0  0  0  0  0  0  0  0  0  0  0  0
   44.8614   29.5528   50.3177 H   0  0  0  0  0  0  0  0  0  0  0  0
   44.8889   28.5869   48.0543 H   0  0  0  0  0  0  0  0  0  0  0  0
   45.2863   30.7148   44.5137 H   0  0  0  0  0  0  0  0  0  0  0  0
  1  6  2  0
  2  3  2  0
  2  1  1  0
  3  4  1  0
  4  5  2  0
  5  9  1  0
  6  5  1  0
  7 11  1  0
  8  7  2  0
  9  7  1  0
 10 11  2  0
 10 15  1  0
 11 12  1  0
 12 13  2  0
 14 13  1  0
 15 14  2  0
 16 17  2  0
 16 10  1  0
 18 16  2  0
  1 19  1  0
  2 20  1  0
  3 21  1  0
  9 22  1  0
 12 23  1  0
 13 24  1  0
 14 25  1  0
 15 26  1  0
 16 27  1  0
M  ISO  8  19  14  20  14  21  14  23  14  24  14  25  14  26  14  27  11
M  END
>  <minimizedAffinity>  (1) 
-4.79967546

>  <minimizedRMSD>  (1) 
3.25751996

$$$$
