
     RDKit          3D

 40 43  0  0  0  0  0  0  0  0999 V2000
   44.3940   34.2600   41.8180 C   0  0  0  0  0  0  0  0  0  0  0  0
   45.4070   33.9280   40.9270 C   0  0  0  0  0  0  0  0  0  0  0  0
   45.0430   33.5570   39.6470 C   0  0  0  0  0  0  0  0  0  0  0  0
   43.7360   33.5320   39.3150 N   0  0  0  0  0  0  0  0  0  0  0  0
   42.7650   33.8500   40.1670 C   0  0  0  0  0  0  0  0  0  0  0  0
   43.1110   34.2040   41.3910 N   0  0  0  0  0  0  0  0  0  0  0  0
   46.7420   34.0020   41.4110 N   0  0  0  0  0  0  0  0  0  0  0  0
   47.6260   32.9000   41.1520 C   0  0  0  0  0  0  0  0  0  0  0  0
   49.0090   33.1000   41.6590 C   0  0  0  0  0  0  0  0  0  0  0  0
   49.5530   34.4020   41.4700 N   0  0  0  0  0  0  0  0  0  0  0  0
   48.6690   35.4930   41.5600 C   0  0  0  0  0  0  0  0  0  0  0  0
   47.3260   35.0800   42.1490 C   0  0  0  0  0  0  0  0  0  0  0  0
   41.3120   33.8730   39.9620 C   0  0  0  0  0  0  0  0  0  0  0  0
   40.5490   35.0200   40.1390 C   0  0  0  0  0  0  0  0  0  0  0  0
   39.1920   35.0890   39.9590 C   0  0  0  0  0  0  0  0  0  0  0  0
   38.5060   33.9730   39.5800 C   0  0  0  0  0  0  0  0  0  0  0  0
   39.2100   32.8090   39.3910 C   0  0  0  0  0  0  0  0  0  0  0  0
   38.4730   31.7110   39.0080 C   0  0  0  0  0  0  0  0  0  0  0  0
   39.0830   30.4940   38.7910 C   0  0  0  0  0  0  0  0  0  0  0  0
   40.4480   30.4590   38.9800 C   0  0  0  0  0  0  0  0  0  0  0  0
   41.1370   31.5840   39.3620 C   0  0  0  0  0  0  0  0  0  0  0  0
   40.5540   32.8080   39.5850 C   0  0  0  0  0  0  0  0  0  0  0  0
   44.6299   34.5621   42.8491 H   0  0  0  0  0  0  0  0  0  0  0  0
   45.8103   33.2851   38.9071 H   0  0  0  0  0  0  0  0  0  0  0  0
   47.2087   32.0022   41.6314 H   0  0  0  0  0  0  0  0  0  0  0  0
   47.6997   32.8022   40.0588 H   0  0  0  0  0  0  0  0  0  0  0  0
   49.0074   32.8877   42.7383 H   0  0  0  0  0  0  0  0  0  0  0  0
   49.6449   32.4210   41.0720 H   0  0  0  0  0  0  0  0  0  0  0  0
   49.9785   34.4258   40.5323 H   0  0  0  0  0  0  0  0  0  0  0  0
   49.1184   36.2645   42.2025 H   0  0  0  0  0  0  0  0  0  0  0  0
   48.4951   35.8794   40.5449 H   0  0  0  0  0  0  0  0  0  0  0  0
   46.6436   35.9423   42.1235 H   0  0  0  0  0  0  0  0  0  0  0  0
   47.4903   34.7429   43.1831 H   0  0  0  0  0  0  0  0  0  0  0  0
   41.0710   35.9385   40.4455 H   0  0  0  0  0  0  0  0  0  0  0  0
   38.6598   36.0383   40.1192 H   0  0  0  0  0  0  0  0  0  0  0  0
   37.4168   34.0043   39.4295 H   0  0  0  0  0  0  0  0  0  0  0  0
   37.3854   31.8059   38.8737 H   0  0  0  0  0  0  0  0  0  0  0  0
   38.5142   29.6035   38.4851 H   0  0  0  0  0  0  0  0  0  0  0  0
   40.9932   29.5166   38.8226 H   0  0  0  0  0  0  0  0  0  0  0  0
   42.2253   31.4997   39.4981 H   0  0  0  0  0  0  0  0  0  0  0  0
  2  7  1  0
  2  1  2  0
  3  2  1  0
  4  3  2  0
  4  5  1  0
  5  6  2  0
  6  1  1  0
  7 12  1  0
  8  7  1  0
  8  9  1  0
 10 11  1  0
 10  9  1  0
 11 12  1  0
 13 14  2  0
 13  5  1  0
 15 14  1  0
 16 15  2  0
 17 16  1  0
 17 22  2  0
 18 17  1  0
 19 20  1  0
 19 18  2  0
 20 21  2  0
 21 22  1  0
 22 13  1  0
  1 23  1  0
  3 24  1  0
  8 25  1  0
  8 26  1  0
  9 27  1  0
  9 28  1  0
 10 29  1  0
 11 30  1  0
 11 31  1  0
 12 32  1  0
 12 33  1  0
 14 34  1  0
 15 35  1  0
 16 36  1  0
 18 37  1  0
 19 38  1  0
 20 39  1  0
 21 40  1  0
M  ISO  8  23  14  24  14  25  13  26  13  27  13  28  13  29   5  30  13
M  ISO  8  31  13  32  13  33  13  34  14  35  14  36  14  37  14  38  14
M  ISO  2  39  14  40  14
M  END
>  <minimizedAffinity>  (1) 
-5.61858845

>  <minimizedRMSD>  (1) 
8.79494953

$$$$
