
     RDKit          3D

 35 38  0  0  0  0  0  0  0  0999 V2000
   42.6100   33.6560   39.2790 C   0  0  0  0  0  0  0  0  0  0  0  0
   42.0740   32.8650   40.2890 C   0  0  0  0  0  0  0  0  0  0  0  0
   42.9530   32.3340   41.2470 C   0  0  0  0  0  0  0  0  0  0  0  0
   44.2850   32.6070   41.1550 N   0  0  0  0  0  0  0  0  0  0  0  0
   44.7630   33.3810   40.1560 C   0  0  0  0  0  0  0  0  0  0  0  0
   43.9440   33.8950   39.2380 N   0  0  0  0  0  0  0  0  0  0  0  0
   46.1740   33.5750   40.1960 N   0  0  0  0  0  0  0  0  0  0  0  0
   46.8850   33.5370   39.0450 C   0  0  0  0  0  0  0  0  0  0  0  0
   48.1910   33.7430   39.3200 N   0  0  0  0  0  0  0  0  0  0  0  0
   48.3160   33.9120   40.6290 C   0  0  0  0  0  0  0  0  0  0  0  0
   49.2910   34.1520   41.5730 C   0  0  0  0  0  0  0  0  0  0  0  0
   49.0650   34.2750   42.8940 N   0  0  0  0  0  0  0  0  0  0  0  0
   47.7830   34.1550   43.3410 C   0  0  0  0  0  0  0  0  0  0  0  0
   46.7620   33.9190   42.4870 N   0  0  0  0  0  0  0  0  0  0  0  0
   47.0380   33.8030   41.1720 C   0  0  0  0  0  0  0  0  0  0  0  0
   40.6890   32.6490   40.2630 N   0  0  0  0  0  0  0  0  0  0  0  0
   40.1220   31.7740   41.2530 C   0  0  0  0  0  0  0  0  0  0  0  0
   38.6490   31.5760   41.1070 C   0  0  0  0  0  0  0  0  0  0  0  0
   37.9180   32.7590   40.8520 N   0  0  0  0  0  0  0  0  0  0  0  0
   38.5260   33.7510   40.0520 C   0  0  0  0  0  0  0  0  0  0  0  0
   39.7550   33.2090   39.3390 C   0  0  0  0  0  0  0  0  0  0  0  0
   41.9508   34.0886   38.5120 H   0  0  0  0  0  0  0  0  0  0  0  0
   42.5702   31.7040   42.0634 H   0  0  0  0  0  0  0  0  0  0  0  0
   46.4650   33.3653   38.0429 H   0  0  0  0  0  0  0  0  0  0  0  0
   50.3287   34.2501   41.2214 H   0  0  0  0  0  0  0  0  0  0  0  0
   47.5753   34.2520   44.4168 H   0  0  0  0  0  0  0  0  0  0  0  0
   40.6138   30.7934   41.1722 H   0  0  0  0  0  0  0  0  0  0  0  0
   40.2870   32.2472   42.2322 H   0  0  0  0  0  0  0  0  0  0  0  0
   38.4775   30.8802   40.2724 H   0  0  0  0  0  0  0  0  0  0  0  0
   38.2895   31.1896   42.0721 H   0  0  0  0  0  0  0  0  0  0  0  0
   37.0415   32.4838   40.3862 H   0  0  0  0  0  0  0  0  0  0  0  0
   37.8013   34.1002   39.3017 H   0  0  0  0  0  0  0  0  0  0  0  0
   38.8400   34.5790   40.7045 H   0  0  0  0  0  0  0  0  0  0  0  0
   39.4421   32.4289   38.6294 H   0  0  0  0  0  0  0  0  0  0  0  0
   40.2452   34.0414   38.8129 H   0  0  0  0  0  0  0  0  0  0  0  0
  1  2  2  0
  2  3  1  0
  4  3  2  0
  5  7  1  0
  5  4  1  0
  6  1  1  0
  6  5  2  0
  7 15  1  0
  8  9  2  0
  8  7  1  0
  9 10  1  0
 10 15  2  0
 10 11  1  0
 11 12  2  0
 12 13  1  0
 14 13  2  0
 15 14  1  0
 16  2  1  0
 16 17  1  0
 18 17  1  0
 19 18  1  0
 20 19  1  0
 21 20  1  0
 21 16  1  0
  1 22  1  0
  3 23  1  0
  8 24  1  0
 11 25  1  0
 13 26  1  0
 17 27  1  0
 17 28  1  0
 18 29  1  0
 18 30  1  0
 19 31  1  0
 20 32  1  0
 20 33  1  0
 21 34  1  0
 21 35  1  0
M  ISO  8  22  14  23  14  24  14  25  14  26  14  27  13  28  13  29  13
M  ISO  6  30  13  31   5  32  13  33  13  34  13  35  13
M  END
>  <minimizedAffinity>  (1) 
-5.09633017

>  <minimizedRMSD>  (1) 
6.45216751

$$$$
