
     RDKit          3D

 26 27  0  0  0  0  0  0  0  0999 V2000
   45.2280   34.2550   43.0100 N   0  0  0  0  0  0  0  0  0  0  0  0
   45.4710   33.3880   41.8880 C   0  0  0  0  0  0  0  0  0  0  0  0
   45.3070   34.0450   40.5630 C   0  0  0  0  0  0  0  0  0  0  0  0
   44.1870   34.8870   40.4440 N   0  0  0  0  0  0  0  0  0  0  0  0
   43.7390   35.5680   41.5970 C   0  0  0  0  0  0  0  0  0  0  0  0
   44.8400   35.5870   42.6490 C   0  0  0  0  0  0  0  0  0  0  0  0
   44.9960   34.5290   45.3650 C   0  0  0  0  0  0  0  0  0  0  0  0
   45.3910   33.7250   44.3010 C   0  0  0  0  0  0  0  0  0  0  0  0
   45.9120   32.4810   44.6030 C   0  0  0  0  0  0  0  0  0  0  0  0
   46.0190   32.0870   45.8990 N   0  0  0  0  0  0  0  0  0  0  0  0
   45.6260   32.8920   46.9100 C   0  0  0  0  0  0  0  0  0  0  0  0
   45.1160   34.1090   46.6450 N   0  0  0  0  0  0  0  0  0  0  0  0
   45.7730   32.4010   48.2730 C   0  0  0  0  0  0  0  0  0  0  0  0
   46.8820   32.0430   48.6940 O   0  0  0  0  0  0  0  0  0  0  0  0
   46.5016   33.0104   41.9606 H   0  0  0  0  0  0  0  0  0  0  0  0
   44.7190   32.5868   41.9389 H   0  0  0  0  0  0  0  0  0  0  0  0
   46.2069   34.6470   40.3685 H   0  0  0  0  0  0  0  0  0  0  0  0
   45.1549   33.2324   39.8374 H   0  0  0  0  0  0  0  0  0  0  0  0
   44.4150   35.6006   39.7371 H   0  0  0  0  0  0  0  0  0  0  0  0
   43.4722   36.6011   41.3297 H   0  0  0  0  0  0  0  0  0  0  0  0
   42.8583   35.0497   42.0041 H   0  0  0  0  0  0  0  0  0  0  0  0
   45.7139   36.1195   42.2456 H   0  0  0  0  0  0  0  0  0  0  0  0
   44.4589   36.0966   43.5463 H   0  0  0  0  0  0  0  0  0  0  0  0
   44.5779   35.5259   45.1615 H   0  0  0  0  0  0  0  0  0  0  0  0
   46.2397   31.8105   43.7949 H   0  0  0  0  0  0  0  0  0  0  0  0
   44.8944   32.3476   48.9327 H   0  0  0  0  0  0  0  0  0  0  0  0
  1  8  1  0
  2  1  1  0
  3  2  1  0
  4  3  1  0
  4  5  1  0
  5  6  1  0
  6  1  1  0
  7 12  2  0
  8  9  2  0
  8  7  1  0
  9 10  1  0
 10 11  2  0
 11 13  1  0
 12 11  1  0
 13 14  2  0
  2 15  1  0
  2 16  1  0
  3 17  1  0
  3 18  1  0
  4 19  1  0
  5 20  1  0
  5 21  1  0
  6 22  1  0
  6 23  1  0
  7 24  1  0
  9 25  1  0
 13 26  1  0
M  ISO  8  15  13  16  13  17  13  18  13  19   5  20  13  21  13  22  13
M  ISO  4  23  13  24  14  25  14  26   6
M  END
>  <minimizedAffinity>  (1) 
-3.76016736

>  <minimizedRMSD>  (1) 
1.58144403

$$$$
