
     RDKit          3D

 49 53  0  0  1  0  0  0  0  0999 V2000
   46.4060   30.9180   44.5820 C   0  0  0  0  0  0  0  0  0  0  0  0
   45.9770   32.1840   44.7550 C   0  0  0  0  0  0  0  0  0  0  0  0
   46.3650   32.8520   45.9130 C   0  0  0  0  0  0  0  0  0  0  0  0
   47.1620   32.2310   46.8490 C   0  0  0  0  0  0  0  0  0  0  0  0
   47.5890   30.9150   46.6360 C   0  0  0  0  0  0  0  0  0  0  0  0
   47.2080   30.2390   45.4820 C   0  0  0  0  0  0  0  0  0  0  0  0
   48.3730   30.5490   47.7330 O   0  0  0  0  0  0  0  0  0  0  0  0
   48.1510   31.5060   48.7620 C   0  0  2  0  0  0  0  0  0  0  0  0
   47.6960   32.6380   48.0710 O   0  0  0  0  0  0  0  0  0  0  0  0
   44.2440   34.7850   42.7860 C   0  0  0  0  0  0  0  0  0  0  0  0
   43.5030   34.0360   41.8890 C   0  0  0  0  0  0  0  0  0  0  0  0
   43.6100   32.6470   41.9720 C   0  0  0  0  0  0  0  0  0  0  0  0
   44.4180   32.0860   42.9090 N   0  0  0  0  0  0  0  0  0  0  0  0
   45.1300   32.8590   43.7740 C   0  0  0  0  0  0  0  0  0  0  0  0
   45.0350   34.1900   43.7020 N   0  0  0  0  0  0  0  0  0  0  0  0
   42.7050   34.7370   40.9660 N   0  0  0  0  0  0  0  0  0  0  0  0
   42.9100   34.4890   39.5720 C   0  0  0  0  0  0  0  0  0  0  0  0
   42.0870   35.3460   38.6800 C   0  0  0  0  0  0  0  0  0  0  0  0
   40.7220   35.4220   39.0710 N   0  0  0  0  0  0  0  0  0  0  0  0
   40.4260   35.4300   40.4460 C   0  0  0  0  0  0  0  0  0  0  0  0
   41.6780   35.6990   41.2640 C   0  0  0  0  0  0  0  0  0  0  0  0
   49.8540   30.5130   50.0890 C   0  0  0  0  0  0  0  0  0  0  0  0
   49.4270   31.6960   49.4770 C   0  0  0  0  0  0  0  0  0  0  0  0
   50.1960   32.8330   49.6020 C   0  0  0  0  0  0  0  0  0  0  0  0
   51.3740   32.8030   50.3220 C   0  0  0  0  0  0  0  0  0  0  0  0
   51.8030   31.6360   50.9310 C   0  0  0  0  0  0  0  0  0  0  0  0
   51.0430   30.4830   50.8160 C   0  0  0  0  0  0  0  0  0  0  0  0
   49.1740   29.2870   50.0430 O   0  0  0  0  0  0  0  0  0  0  0  0
   51.5100   29.3410   51.4400 O   0  0  0  0  0  0  0  0  0  0  0  0
   46.0988   30.3909   43.6667 H   0  0  0  0  0  0  0  0  0  0  0  0
   46.0316   33.8865   46.0823 H   0  0  0  0  0  0  0  0  0  0  0  0
   47.5316   29.2050   45.2922 H   0  0  0  0  0  0  0  0  0  0  0  0
   47.4169   31.2283   49.5327 H   0  0  0  0  0  0  0  0  0  0  0  0
   44.1870   35.8830   42.7514 H   0  0  0  0  0  0  0  0  0  0  0  0
   43.0414   32.0080   41.2804 H   0  0  0  0  0  0  0  0  0  0  0  0
   43.9707   34.6669   39.3410 H   0  0  0  0  0  0  0  0  0  0  0  0
   42.6054   33.4487   39.3849 H   0  0  0  0  0  0  0  0  0  0  0  0
   42.1353   34.9356   37.6606 H   0  0  0  0  0  0  0  0  0  0  0  0
   42.4985   36.3645   38.7384 H   0  0  0  0  0  0  0  0  0  0  0  0
   40.3369   36.2892   38.6703 H   0  0  0  0  0  0  0  0  0  0  0  0
   39.6849   36.2165   40.6511 H   0  0  0  0  0  0  0  0  0  0  0  0
   40.0252   34.4449   40.7269 H   0  0  0  0  0  0  0  0  0  0  0  0
   41.4286   35.6392   42.3337 H   0  0  0  0  0  0  0  0  0  0  0  0
   42.0531   36.7017   41.0112 H   0  0  0  0  0  0  0  0  0  0  0  0
   49.8696   33.7693   49.1257 H   0  0  0  0  0  0  0  0  0  0  0  0
   51.9788   33.7173   50.4128 H   0  0  0  0  0  0  0  0  0  0  0  0
   52.7424   31.6241   51.5032 H   0  0  0  0  0  0  0  0  0  0  0  0
   48.3194   29.2132   49.5488 H   0  0  0  0  0  0  0  0  0  0  0  0
   52.3605   29.3660   51.9461 H   0  0  0  0  0  0  0  0  0  0  0  0
  1  2  2  0
  1  6  1  0
  2  3  1  0
  3  4  2  0
  4  9  1  0
  5  4  1  0
  5  7  1  0
  6  5  2  0
  7  8  1  0
  8 23  1  0
  9  8  1  0
 10 15  2  0
 11 12  2  0
 11 10  1  0
 12 13  1  0
 13 14  2  0
 14  2  1  0
 15 14  1  0
 16 21  1  0
 16 11  1  0
 17 16  1  0
 18 19  1  0
 18 17  1  0
 19 20  1  0
 20 21  1  0
 22 27  2  0
 23 24  2  0
 23 22  1  0
 24 25  1  0
 25 26  2  0
 27 26  1  0
 27 29  1  0
 28 22  1  0
  1 30  1  0
  3 31  1  0
  6 32  1  0
  8 33  1  1
 10 34  1  0
 12 35  1  0
 17 36  1  0
 17 37  1  0
 18 38  1  0
 18 39  1  0
 19 40  1  0
 20 41  1  0
 20 42  1  0
 21 43  1  0
 21 44  1  0
 24 45  1  0
 25 46  1  0
 26 47  1  0
 28 48  1  0
 29 49  1  0
M  ISO  8  30  14  31  14  32  14  33  13  34  14  35  14  36  13  37  13
M  ISO  8  38  13  39  13  40   5  41  13  42  13  43  13  44  13  45  14
M  ISO  4  46  14  47  14  48   3  49   3
M  END
>  <minimizedAffinity>  (1) 
-6.37426758

>  <minimizedRMSD>  (1) 
1.07949018

$$$$
