
     RDKit          3D

 47 51  0  0  1  0  0  0  0  0999 V2000
   45.0250   34.0530   43.6020 C   0  0  0  0  0  0  0  0  0  0  0  0
   44.3510   33.2790   42.6650 C   0  0  0  0  0  0  0  0  0  0  0  0
   44.5220   31.9070   42.7260 C   0  0  0  0  0  0  0  0  0  0  0  0
   45.3220   31.3590   43.6750 N   0  0  0  0  0  0  0  0  0  0  0  0
   45.9590   32.1350   44.5680 C   0  0  0  0  0  0  0  0  0  0  0  0
   45.8180   33.4840   44.5400 N   0  0  0  0  0  0  0  0  0  0  0  0
   43.5560   33.9950   41.7400 N   0  0  0  0  0  0  0  0  0  0  0  0
   43.1420   33.2800   40.5490 C   0  0  0  0  0  0  0  0  0  0  0  0
   42.3810   34.1100   39.5820 C   0  0  0  0  0  0  0  0  0  0  0  0
   41.3470   34.8800   40.2020 N   0  0  0  0  0  0  0  0  0  0  0  0
   41.6130   35.4120   41.4750 C   0  0  0  0  0  0  0  0  0  0  0  0
   43.0960   35.3360   41.8110 C   0  0  0  0  0  0  0  0  0  0  0  0
   47.3370   30.2700   45.3750 C   0  0  0  0  0  0  0  0  0  0  0  0
   46.8260   31.5210   45.5920 C   0  0  0  0  0  0  0  0  0  0  0  0
   47.1310   32.1850   46.7670 C   0  0  0  0  0  0  0  0  0  0  0  0
   47.9480   31.5650   47.6920 C   0  0  0  0  0  0  0  0  0  0  0  0
   48.4660   30.2970   47.4700 C   0  0  0  0  0  0  0  0  0  0  0  0
   48.1590   29.6330   46.2930 C   0  0  0  0  0  0  0  0  0  0  0  0
   49.2420   29.9630   48.5850 O   0  0  0  0  0  0  0  0  0  0  0  0
   48.9920   30.8970   49.6030 C   0  0  2  0  0  0  0  0  0  0  0  0
   48.4100   31.9970   48.9400 O   0  0  0  0  0  0  0  0  0  0  0  0
   50.2480   29.0710   51.6210 Cl  0  0  0  0  0  0  0  0  0  0  0  0
   50.9130   30.6620   51.2440 C   0  0  0  0  0  0  0  0  0  0  0  0
   50.2150   31.3760   50.2930 C   0  0  0  0  0  0  0  0  0  0  0  0
   50.7080   32.6310   49.9700 C   0  0  0  0  0  0  0  0  0  0  0  0
   51.8520   33.1560   50.5720 C   0  0  0  0  0  0  0  0  0  0  0  0
   52.5190   32.4040   51.5210 C   0  0  0  0  0  0  0  0  0  0  0  0
   52.0480   31.1430   51.8640 C   0  0  0  0  0  0  0  0  0  0  0  0
   44.9121   35.1470   43.5811 H   0  0  0  0  0  0  0  0  0  0  0  0
   44.0072   31.2581   42.0021 H   0  0  0  0  0  0  0  0  0  0  0  0
   44.0417   32.8979   40.0444 H   0  0  0  0  0  0  0  0  0  0  0  0
   42.4680   32.4755   40.8783 H   0  0  0  0  0  0  0  0  0  0  0  0
   41.9235   33.4462   38.8336 H   0  0  0  0  0  0  0  0  0  0  0  0
   43.0892   34.8164   39.1243 H   0  0  0  0  0  0  0  0  0  0  0  0
   41.1316   35.6691   39.5760 H   0  0  0  0  0  0  0  0  0  0  0  0
   41.2949   36.4648   41.4964 H   0  0  0  0  0  0  0  0  0  0  0  0
   41.0591   34.8212   42.2194 H   0  0  0  0  0  0  0  0  0  0  0  0
   43.2561   35.7197   42.8294 H   0  0  0  0  0  0  0  0  0  0  0  0
   43.6560   35.9421   41.0837 H   0  0  0  0  0  0  0  0  0  0  0  0
   47.0867   29.7506   44.4382 H   0  0  0  0  0  0  0  0  0  0  0  0
   46.7293   33.1904   46.9613 H   0  0  0  0  0  0  0  0  0  0  0  0
   48.5567   28.6273   46.0920 H   0  0  0  0  0  0  0  0  0  0  0  0
   48.3657   30.4321   50.3786 H   0  0  0  0  0  0  0  0  0  0  0  0
   50.1803   33.2321   49.2149 H   0  0  0  0  0  0  0  0  0  0  0  0
   52.2185   34.1555   50.2950 H   0  0  0  0  0  0  0  0  0  0  0  0
   53.4225   32.8041   52.0044 H   0  0  0  0  0  0  0  0  0  0  0  0
   52.5717   30.5373   52.6182 H   0  0  0  0  0  0  0  0  0  0  0  0
  1  6  2  0
  2  3  2  0
  2  1  1  0
  3  4  1  0
  4  5  2  0
  5 14  1  0
  6  5  1  0
  7 12  1  0
  7  2  1  0
  8  7  1  0
  9 10  1  0
  9  8  1  0
 10 11  1  0
 11 12  1  0
 13 14  2  0
 13 18  1  0
 14 15  1  0
 15 16  2  0
 16 21  1  0
 17 16  1  0
 17 19  1  0
 18 17  2  0
 19 20  1  0
 20 24  1  0
 21 20  1  0
 23 22  1  0
 23 28  2  0
 24 23  1  0
 25 24  2  0
 25 26  1  0
 26 27  2  0
 27 28  1  0
  1 29  1  0
  3 30  1  0
  8 31  1  0
  8 32  1  0
  9 33  1  0
  9 34  1  0
 10 35  1  0
 11 36  1  0
 11 37  1  0
 12 38  1  0
 12 39  1  0
 13 40  1  0
 15 41  1  0
 18 42  1  0
 20 43  1  1
 25 44  1  0
 26 45  1  0
 27 46  1  0
 28 47  1  0
M  ISO  8  29  14  30  14  31  13  32  13  33  13  34  13  35   5  36  13
M  ISO  8  37  13  38  13  39  13  40  14  41  14  42  14  43  13  44  14
M  ISO  3  45  14  46  14  47  14
M  END
>  <minimizedAffinity>  (1) 
-6.04863548

>  <minimizedRMSD>  (1) 
1.63583755

$$$$
