
     RDKit          3D

 44 47  0  0  1  0  0  0  0  0999 V2000
   44.1450   34.8360   42.6070 C   0  0  0  0  0  0  0  0  0  0  0  0
   43.3730   34.0640   41.7510 C   0  0  0  0  0  0  0  0  0  0  0  0
   43.4770   32.6880   41.8760 C   0  0  0  0  0  0  0  0  0  0  0  0
   44.3040   32.1430   42.8020 N   0  0  0  0  0  0  0  0  0  0  0  0
   45.0440   32.9340   43.6200 C   0  0  0  0  0  0  0  0  0  0  0  0
   44.9580   34.2640   43.5160 N   0  0  0  0  0  0  0  0  0  0  0  0
   42.5530   34.7550   40.8330 N   0  0  0  0  0  0  0  0  0  0  0  0
   42.7680   34.5080   39.4350 C   0  0  0  0  0  0  0  0  0  0  0  0
   41.9260   35.3530   38.5480 C   0  0  0  0  0  0  0  0  0  0  0  0
   40.5450   35.3740   38.9330 N   0  0  0  0  0  0  0  0  0  0  0  0
   40.2680   35.4010   40.3200 C   0  0  0  0  0  0  0  0  0  0  0  0
   41.5070   35.6970   41.1400 C   0  0  0  0  0  0  0  0  0  0  0  0
   46.4230   31.0460   44.3990 C   0  0  0  0  0  0  0  0  0  0  0  0
   45.9220   32.2800   44.6030 C   0  0  0  0  0  0  0  0  0  0  0  0
   46.2490   32.9500   45.7790 C   0  0  0  0  0  0  0  0  0  0  0  0
   47.0720   32.3400   46.7010 C   0  0  0  0  0  0  0  0  0  0  0  0
   47.5770   31.0730   46.4750 C   0  0  0  0  0  0  0  0  0  0  0  0
   47.2530   30.3930   45.2970 C   0  0  0  0  0  0  0  0  0  0  0  0
   48.3720   30.7130   47.5690 O   0  0  0  0  0  0  0  0  0  0  0  0
   48.0690   31.6230   48.6230 C   0  0  2  0  0  0  0  0  0  0  0  0
   47.5680   32.7550   47.9510 O   0  0  0  0  0  0  0  0  0  0  0  0
   49.3270   31.8600   49.3500 C   0  0  0  0  0  0  0  0  0  0  0  0
   50.0600   30.9660   49.9760 C   0  0  0  0  0  0  0  0  0  0  0  0
   49.6300   29.5510   49.9890 C   0  0  0  0  0  0  0  0  0  0  0  0
   44.0923   35.9328   42.5424 H   0  0  0  0  0  0  0  0  0  0  0  0
   42.8847   32.0334   41.2197 H   0  0  0  0  0  0  0  0  0  0  0  0
   43.8251   34.7068   39.2047 H   0  0  0  0  0  0  0  0  0  0  0  0
   42.4897   33.4610   39.2445 H   0  0  0  0  0  0  0  0  0  0  0  0
   41.9971   34.9623   37.5222 H   0  0  0  0  0  0  0  0  0  0  0  0
   42.3025   36.3837   38.6244 H   0  0  0  0  0  0  0  0  0  0  0  0
   40.1178   36.2123   38.5139 H   0  0  0  0  0  0  0  0  0  0  0  0
   39.5170   36.1802   40.5172 H   0  0  0  0  0  0  0  0  0  0  0  0
   39.8964   34.4077   40.6119 H   0  0  0  0  0  0  0  0  0  0  0  0
   41.2587   35.6263   42.2093 H   0  0  0  0  0  0  0  0  0  0  0  0
   41.8594   36.7106   40.8984 H   0  0  0  0  0  0  0  0  0  0  0  0
   46.1582   30.5268   43.4661 H   0  0  0  0  0  0  0  0  0  0  0  0
   45.8535   33.9584   45.9707 H   0  0  0  0  0  0  0  0  0  0  0  0
   47.6398   29.3839   45.0918 H   0  0  0  0  0  0  0  0  0  0  0  0
   47.3344   31.2863   49.3694 H   0  0  0  0  0  0  0  0  0  0  0  0
   49.6932   32.8970   49.3718 H   0  0  0  0  0  0  0  0  0  0  0  0
   50.9864   31.2682   50.4864 H   0  0  0  0  0  0  0  0  0  0  0  0
   49.5260   29.2089   51.0293 H   0  0  0  0  0  0  0  0  0  0  0  0
   48.6627   29.4570   49.4737 H   0  0  0  0  0  0  0  0  0  0  0  0
   50.3814   28.9347   49.4737 H   0  0  0  0  0  0  0  0  0  0  0  0
  1  6  2  0
  2  3  2  0
  2  1  1  0
  3  4  1  0
  4  5  2  0
  5 14  1  0
  6  5  1  0
  7 12  1  0
  7  2  1  0
  8  7  1  0
  9 10  1  0
  9  8  1  0
 10 11  1  0
 11 12  1  0
 13 14  2  0
 13 18  1  0
 14 15  1  0
 15 16  2  0
 16 21  1  0
 17 16  1  0
 17 19  1  0
 18 17  2  0
 19 20  1  0
 20 22  1  0
 21 20  1  0
 22 23  2  0
 23 24  1  0
  1 25  1  0
  3 26  1  0
  8 27  1  0
  8 28  1  0
  9 29  1  0
  9 30  1  0
 10 31  1  0
 11 32  1  0
 11 33  1  0
 12 34  1  0
 12 35  1  0
 13 36  1  0
 15 37  1  0
 18 38  1  0
 20 39  1  1
 22 40  1  0
 23 41  1  0
 24 42  1  0
 24 43  1  0
 24 44  1  0
M  ISO  8  25  14  26  14  27  13  28  13  29  13  30  13  31   5  32  13
M  ISO  8  33  13  34  13  35  13  36  14  37  14  38  14  39  13  42   8
M  ISO  2  43   8  44   8
M  END
>  <minimizedAffinity>  (1) 
-5.55124187

>  <minimizedRMSD>  (1) 
0.103309296

$$$$
