
     RDKit          3D

 23 24  0  0  0  0  0  0  0  0999 V2000
   46.6860   33.6890   42.6950 C   0  0  0  0  0  0  0  0  0  0  0  0
   47.5640   32.8150   42.5570 O   0  0  0  0  0  0  0  0  0  0  0  0
   46.0120   34.0840   43.8890 C   0  0  0  0  0  0  0  0  0  0  0  0
   45.2510   35.2290   43.7480 C   0  0  0  0  0  0  0  0  0  0  0  0
   44.5500   35.6970   44.8630 C   0  0  0  0  0  0  0  0  0  0  0  0
   44.6520   35.0080   46.0150 N   0  0  0  0  0  0  0  0  0  0  0  0
   45.4150   33.8780   46.1140 C   0  0  0  0  0  0  0  0  0  0  0  0
   46.0900   33.4280   45.0420 N   0  0  0  0  0  0  0  0  0  0  0  0
   46.2980   34.3810   41.5410 O   0  0  0  0  0  0  0  0  0  0  0  0
   48.9100   35.7420   40.9590 Cl  0  0  0  0  0  0  0  0  0  0  0  0
   48.0770   34.6830   39.8270 C   0  0  0  0  0  0  0  0  0  0  0  0
   46.8900   34.1700   40.3130 C   0  0  0  0  0  0  0  0  0  0  0  0
   46.1860   33.3210   39.4530 C   0  0  0  0  0  0  0  0  0  0  0  0
   46.6600   33.0160   38.1850 C   0  0  0  0  0  0  0  0  0  0  0  0
   47.8330   33.5350   37.7270 C   0  0  0  0  0  0  0  0  0  0  0  0
   48.4460   33.1640   36.1340 Cl  0  0  0  0  0  0  0  0  0  0  0  0
   48.5330   34.3750   38.5720 C   0  0  0  0  0  0  0  0  0  0  0  0
   45.1984   35.7575   42.7847 H   0  0  0  0  0  0  0  0  0  0  0  0
   43.9313   36.6044   44.8008 H   0  0  0  0  0  0  0  0  0  0  0  0
   45.4766   33.3374   47.0700 H   0  0  0  0  0  0  0  0  0  0  0  0
   45.2340   32.8847   39.7897 H   0  0  0  0  0  0  0  0  0  0  0  0
   46.0780   32.3430   37.5382 H   0  0  0  0  0  0  0  0  0  0  0  0
   49.4833   34.8088   38.2274 H   0  0  0  0  0  0  0  0  0  0  0  0
  1  3  1  0
  2  1  2  0
  3  8  1  0
  4  3  2  0
  4  5  1  0
  5  6  2  0
  6  7  1  0
  8  7  2  0
  9  1  1  0
 11 12  2  0
 11 10  1  0
 12  9  1  0
 13 12  1  0
 14 13  2  0
 15 14  1  0
 15 17  2  0
 16 15  1  0
 17 11  1  0
  4 18  1  0
  5 19  1  0
  7 20  1  0
 13 21  1  0
 14 22  1  0
 17 23  1  0
M  ISO  6  18  14  19  14  20  14  21  14  22  14  23  14
M  END
>  <minimizedAffinity>  (1) 
-4.75943613

>  <minimizedRMSD>  (1) 
1.09476268

$$$$
