
     RDKit          3D

 26 27  0  0  0  0  0  0  0  0999 V2000
   47.1280   33.7130   41.1400 O   0  0  0  0  0  0  0  0  0  0  0  0
   48.6010   32.7970   39.4010 C   0  0  0  0  0  0  0  0  0  0  0  0
   48.1860   32.9160   40.7000 C   0  0  0  0  0  0  0  0  0  0  0  0
   48.8270   32.2120   41.7150 C   0  0  0  0  0  0  0  0  0  0  0  0
   49.8980   31.3870   41.3700 C   0  0  0  0  0  0  0  0  0  0  0  0
   50.3340   31.2500   40.0760 C   0  0  0  0  0  0  0  0  0  0  0  0
   49.6660   31.9700   39.0970 C   0  0  0  0  0  0  0  0  0  0  0  0
   47.7150   33.7310   38.2280 S   0  0  0  0  0  0  0  0  0  0  0  0
   47.1990   32.7770   37.1780 O   0  0  0  0  0  0  0  0  0  0  0  0
   48.5970   34.7110   37.5120 O   0  0  0  0  0  0  0  0  0  0  0  0
   47.3100   34.7940   41.9840 C   0  0  0  0  0  0  0  0  0  0  0  0
   48.2000   35.6320   41.6770 O   0  0  0  0  0  0  0  0  0  0  0  0
   46.4490   34.8300   43.1230 C   0  0  0  0  0  0  0  0  0  0  0  0
   45.5480   35.8830   43.1170 C   0  0  0  0  0  0  0  0  0  0  0  0
   44.6680   35.9790   44.2110 C   0  0  0  0  0  0  0  0  0  0  0  0
   44.7470   35.0500   45.2020 N   0  0  0  0  0  0  0  0  0  0  0  0
   45.6480   34.0430   45.1540 C   0  0  0  0  0  0  0  0  0  0  0  0
   46.4920   33.9380   44.1200 N   0  0  0  0  0  0  0  0  0  0  0  0
   48.4983   32.3035   42.7607 H   0  0  0  0  0  0  0  0  0  0  0  0
   50.4118   30.8258   42.1644 H   0  0  0  0  0  0  0  0  0  0  0  0
   51.1808   30.5943   39.8250 H   0  0  0  0  0  0  0  0  0  0  0  0
   49.9924   31.8806   38.0504 H   0  0  0  0  0  0  0  0  0  0  0  0
   46.7219   34.4086   38.8849 H   0  0  0  0  0  0  0  0  0  0  0  0
   45.5219   36.6117   42.2934 H   0  0  0  0  0  0  0  0  0  0  0  0
   43.9285   36.7916   44.2641 H   0  0  0  0  0  0  0  0  0  0  0  0
   45.6878   33.3057   45.9693 H   0  0  0  0  0  0  0  0  0  0  0  0
  1 11  1  0
  2  3  2  0
  3  1  1  0
  3  4  1  0
  5  4  2  0
  6  5  1  0
  7  2  1  0
  7  6  2  0
  8  2  1  0
  9  8  2  0
 10  8  2  0
 11 13  1  0
 12 11  2  0
 13 18  1  0
 14 13  2  0
 14 15  1  0
 15 16  2  0
 17 16  1  0
 18 17  2  0
  4 19  1  0
  5 20  1  0
  6 21  1  0
  7 22  1  0
  8 23  1  0
 14 24  1  0
 15 25  1  0
 17 26  1  0
M  ISO  8  19  14  20  14  21  14  22  14  23  11  24  14  25  14  26  14
M  END
>  <minimizedAffinity>  (1) 
-4.36470699

>  <minimizedRMSD>  (1) 
2.89321613

$$$$
