
     RDKit          3D

 19 19  0  0  0  0  0  0  0  0999 V2000
   46.1750   34.3390   43.5370 C   0  0  0  0  0  0  0  0  0  0  0  0
   45.5060   35.5070   43.2280 C   0  0  0  0  0  0  0  0  0  0  0  0
   44.6780   36.0710   44.2020 C   0  0  0  0  0  0  0  0  0  0  0  0
   44.5730   35.4450   45.4020 N   0  0  0  0  0  0  0  0  0  0  0  0
   45.2530   34.2890   45.6700 C   0  0  0  0  0  0  0  0  0  0  0  0
   46.0380   33.7690   44.7230 N   0  0  0  0  0  0  0  0  0  0  0  0
   46.9990   33.8330   42.4800 C   0  0  0  0  0  0  0  0  0  0  0  0
   47.6570   32.7550   42.4960 O   0  0  0  0  0  0  0  0  0  0  0  0
   47.0500   34.6350   41.3450 O   0  0  0  0  0  0  0  0  0  0  0  0
   48.2750   34.9600   40.7000 C   0  0  0  0  0  0  0  0  0  0  0  0
   49.1030   35.9380   41.5370 C   0  0  0  0  0  0  0  0  0  0  0  0
   45.6218   35.9804   42.2419 H   0  0  0  0  0  0  0  0  0  0  0  0
   44.1244   37.0001   44.0012 H   0  0  0  0  0  0  0  0  0  0  0  0
   45.1550   33.7962   46.6485 H   0  0  0  0  0  0  0  0  0  0  0  0
   48.8554   34.0380   40.5482 H   0  0  0  0  0  0  0  0  0  0  0  0
   48.0435   35.4378   39.7366 H   0  0  0  0  0  0  0  0  0  0  0  0
   48.9349   35.7394   42.6058 H   0  0  0  0  0  0  0  0  0  0  0  0
   50.1701   35.8084   41.3034 H   0  0  0  0  0  0  0  0  0  0  0  0
   48.7991   36.9691   41.3034 H   0  0  0  0  0  0  0  0  0  0  0  0
  1  6  2  0
  2  1  1  0
  2  3  2  0
  3  4  1  0
  4  5  2  0
  6  5  1  0
  7  8  2  0
  7  1  1  0
  9  7  1  0
 10  9  1  0
 10 11  1  0
  2 12  1  0
  3 13  1  0
  5 14  1  0
 10 15  1  0
 10 16  1  0
 11 17  1  0
 11 18  1  0
 11 19  1  0
M  ISO  8  12  14  13  14  14  14  15   8  16   8  17   8  18   8  19   8
M  END
>  <minimizedAffinity>  (1) 
-3.77157116

>  <minimizedRMSD>  (1) 
1.58840597

$$$$
