
     RDKit          3D

 34 36  0  0  0  0  0  0  0  0999 V2000
   47.2680   33.9670   39.6730 C   0  0  0  0  0  0  0  0  0  0  0  0
   48.3170   34.6850   39.1750 C   0  0  0  0  0  0  0  0  0  0  0  0
   48.4860   34.3220   37.8510 C   0  0  0  0  0  0  0  0  0  0  0  0
   47.5120   33.3810   37.6050 C   0  0  0  0  0  0  0  0  0  0  0  0
   46.8170   33.2010   38.7000 O   0  0  0  0  0  0  0  0  0  0  0  0
   47.2660   32.6980   36.3820 N   0  0  0  0  0  0  0  0  0  0  0  0
   48.2550   32.6680   35.3110 C   0  0  0  0  0  0  0  0  0  0  0  0
   47.6920   31.9420   34.1300 C   0  0  0  0  0  0  0  0  0  0  0  0
   46.4250   32.5380   33.7640 N   0  0  0  0  0  0  0  0  0  0  0  0
   45.4240   32.3760   34.7960 C   0  0  0  0  0  0  0  0  0  0  0  0
   46.0300   31.9950   36.1260 C   0  0  0  0  0  0  0  0  0  0  0  0
   46.6760   33.9470   40.9560 O   0  0  0  0  0  0  0  0  0  0  0  0
   47.1160   34.8020   41.9590 C   0  0  0  0  0  0  0  0  0  0  0  0
   48.1510   35.4730   41.7090 O   0  0  0  0  0  0  0  0  0  0  0  0
   46.3290   34.8070   43.1500 C   0  0  0  0  0  0  0  0  0  0  0  0
   45.3970   35.8340   43.1770 C   0  0  0  0  0  0  0  0  0  0  0  0
   44.5760   35.9090   44.3260 C   0  0  0  0  0  0  0  0  0  0  0  0
   44.7480   34.9880   45.3120 N   0  0  0  0  0  0  0  0  0  0  0  0
   45.6760   34.0210   45.2110 C   0  0  0  0  0  0  0  0  0  0  0  0
   46.4760   33.9160   44.1360 N   0  0  0  0  0  0  0  0  0  0  0  0
   48.9199   35.4205   39.7277 H   0  0  0  0  0  0  0  0  0  0  0  0
   49.2383   34.7039   37.1452 H   0  0  0  0  0  0  0  0  0  0  0  0
   48.5113   33.6974   35.0201 H   0  0  0  0  0  0  0  0  0  0  0  0
   49.1592   32.1494   35.6623 H   0  0  0  0  0  0  0  0  0  0  0  0
   48.3916   32.0169   33.2845 H   0  0  0  0  0  0  0  0  0  0  0  0
   47.5418   30.8825   34.3850 H   0  0  0  0  0  0  0  0  0  0  0  0
   46.5683   33.5441   33.5964 H   0  0  0  0  0  0  0  0  0  0  0  0
   44.8801   33.3249   34.9137 H   0  0  0  0  0  0  0  0  0  0  0  0
   44.7503   31.5631   34.4874 H   0  0  0  0  0  0  0  0  0  0  0  0
   45.3129   32.2362   36.9245 H   0  0  0  0  0  0  0  0  0  0  0  0
   46.2522   30.9180   36.1007 H   0  0  0  0  0  0  0  0  0  0  0  0
   45.3016   36.5517   42.3489 H   0  0  0  0  0  0  0  0  0  0  0  0
   43.8136   36.6963   44.4204 H   0  0  0  0  0  0  0  0  0  0  0  0
   45.7838   33.2955   46.0308 H   0  0  0  0  0  0  0  0  0  0  0  0
  1 12  1  0
  2  1  2  0
  3  2  1  0
  4  3  2  0
  4  5  1  0
  5  1  1  0
  6  4  1  0
  7  6  1  0
  8  7  1  0
  9  8  1  0
  9 10  1  0
 10 11  1  0
 11  6  1  0
 12 13  1  0
 13 15  1  0
 14 13  2  0
 15 16  2  0
 15 20  1  0
 16 17  1  0
 17 18  2  0
 19 18  1  0
 20 19  2  0
  2 21  1  0
  3 22  1  0
  7 23  1  0
  7 24  1  0
  8 25  1  0
  8 26  1  0
  9 27  1  0
 10 28  1  0
 10 29  1  0
 11 30  1  0
 11 31  1  0
 16 32  1  0
 17 33  1  0
 19 34  1  0
M  ISO  8  21  14  22  14  23  13  24  13  25  13  26  13  27   5  28  13
M  ISO  6  29  13  30  13  31  13  32  14  33  14  34  14
M  END
>  <minimizedAffinity>  (1) 
-5.48396254

>  <minimizedRMSD>  (1) 
1.03353941

$$$$
