
     RDKit          3D

 30 32  0  0  0  0  0  0  0  0999 V2000
   47.2170   34.8540   42.0790 C   0  0  0  0  0  0  0  0  0  0  0  0
   48.3340   35.5800   41.7740 C   0  0  0  0  0  0  0  0  0  0  0  0
   48.7770   35.2120   40.5120 C   0  0  0  0  0  0  0  0  0  0  0  0
   47.8820   34.2540   40.1030 C   0  0  0  0  0  0  0  0  0  0  0  0
   46.9630   34.0530   41.0400 O   0  0  0  0  0  0  0  0  0  0  0  0
   48.8510   35.4270   37.7460 F   0  0  0  0  0  0  0  0  0  0  0  0
   48.3720   34.1460   37.7000 C   0  0  0  0  0  0  0  0  0  0  0  0
   47.8870   33.5300   38.8360 C   0  0  0  0  0  0  0  0  0  0  0  0
   47.3960   32.2270   38.8060 C   0  0  0  0  0  0  0  0  0  0  0  0
   47.4260   31.5900   37.5800 C   0  0  0  0  0  0  0  0  0  0  0  0
   47.9040   32.1580   36.4050 C   0  0  0  0  0  0  0  0  0  0  0  0
   48.3730   33.4510   36.5050 C   0  0  0  0  0  0  0  0  0  0  0  0
   46.3960   34.8510   43.2240 O   0  0  0  0  0  0  0  0  0  0  0  0
   45.1250   35.4320   43.1920 C   0  0  0  0  0  0  0  0  0  0  0  0
   44.9510   36.4300   43.9380 O   0  0  0  0  0  0  0  0  0  0  0  0
   44.1850   34.8180   42.3140 C   0  0  0  0  0  0  0  0  0  0  0  0
   43.5960   35.6960   41.4310 C   0  0  0  0  0  0  0  0  0  0  0  0
   42.6560   35.1730   40.5290 C   0  0  0  0  0  0  0  0  0  0  0  0
   42.3850   33.8540   40.5780 N   0  0  0  0  0  0  0  0  0  0  0  0
   42.9920   33.0220   41.4690 C   0  0  0  0  0  0  0  0  0  0  0  0
   43.8910   33.5220   42.3320 N   0  0  0  0  0  0  0  0  0  0  0  0
   48.8048   36.3330   42.4231 H   0  0  0  0  0  0  0  0  0  0  0  0
   49.6479   35.5997   39.9632 H   0  0  0  0  0  0  0  0  0  0  0  0
   47.0061   31.7325   39.7079 H   0  0  0  0  0  0  0  0  0  0  0  0
   47.0442   30.5596   37.5305 H   0  0  0  0  0  0  0  0  0  0  0  0
   47.9080   31.6088   35.4519 H   0  0  0  0  0  0  0  0  0  0  0  0
   48.7612   33.9464   35.6029 H   0  0  0  0  0  0  0  0  0  0  0  0
   43.8523   36.7657   41.4326 H   0  0  0  0  0  0  0  0  0  0  0  0
   42.1526   35.8245   39.7995 H   0  0  0  0  0  0  0  0  0  0  0  0
   42.7479   31.9495   41.4816 H   0  0  0  0  0  0  0  0  0  0  0  0
  1 13  1  0
  2  1  2  0
  3  2  1  0
  4  3  2  0
  4  5  1  0
  5  1  1  0
  7  6  1  0
  7  8  2  0
  8  4  1  0
  9  8  1  0
 10  9  2  0
 11 12  2  0
 11 10  1  0
 12  7  1  0
 14 13  1  0
 14 15  2  0
 16 21  1  0
 16 14  1  0
 17 16  2  0
 18 19  2  0
 18 17  1  0
 19 20  1  0
 20 21  2  0
  2 22  1  0
  3 23  1  0
  9 24  1  0
 10 25  1  0
 11 26  1  0
 12 27  1  0
 17 28  1  0
 18 29  1  0
 20 30  1  0
M  ISO  8  22  14  23  14  24  14  25  14  26  14  27  14  28  14  29  14
M  ISO  1  30  14
M  END
>  <minimizedAffinity>  (1) 
-5.3896637

>  <minimizedRMSD>  (1) 
3.3969934

$$$$
