
     RDKit          3D

 22 23  0  0  0  0  0  0  0  0999 V2000
   47.2470   34.7410   41.9260 C   0  0  0  0  0  0  0  0  0  0  0  0
   48.1630   35.5320   41.6040 O   0  0  0  0  0  0  0  0  0  0  0  0
   46.4050   34.7970   43.0860 C   0  0  0  0  0  0  0  0  0  0  0  0
   45.5210   35.8670   43.0690 C   0  0  0  0  0  0  0  0  0  0  0  0
   44.6620   35.9960   44.1640 C   0  0  0  0  0  0  0  0  0  0  0  0
   44.7360   35.0870   45.1640 N   0  0  0  0  0  0  0  0  0  0  0  0
   45.6290   34.0590   45.1220 C   0  0  0  0  0  0  0  0  0  0  0  0
   46.4600   33.9190   44.0790 N   0  0  0  0  0  0  0  0  0  0  0  0
   47.0200   33.6830   41.0560 O   0  0  0  0  0  0  0  0  0  0  0  0
   47.2690   33.8080   39.6820 C   0  0  0  0  0  0  0  0  0  0  0  0
   48.3200   34.3400   38.9910 C   0  0  0  0  0  0  0  0  0  0  0  0
   48.0640   34.2080   37.6350 C   0  0  0  0  0  0  0  0  0  0  0  0
   46.8410   33.5860   37.5570 C   0  0  0  0  0  0  0  0  0  0  0  0
   46.4110   33.3700   38.7810 O   0  0  0  0  0  0  0  0  0  0  0  0
   46.0780   33.1970   36.4210 N   0  0  0  0  0  0  0  0  0  0  0  0
   45.4976   36.5806   42.2322 H   0  0  0  0  0  0  0  0  0  0  0  0
   43.9378   36.8226   44.2122 H   0  0  0  0  0  0  0  0  0  0  0  0
   45.6687   33.3373   45.9512 H   0  0  0  0  0  0  0  0  0  0  0  0
   49.2173   34.7958   39.4350 H   0  0  0  0  0  0  0  0  0  0  0  0
   48.7029   34.5318   36.8002 H   0  0  0  0  0  0  0  0  0  0  0  0
   45.1667   32.7337   36.5468 H   0  0  0  0  0  0  0  0  0  0  0  0
   46.4369   33.3787   35.4728 H   0  0  0  0  0  0  0  0  0  0  0  0
  1  3  1  0
  2  1  2  0
  3  8  1  0
  4  3  2  0
  4  5  1  0
  5  6  2  0
  7  6  1  0
  8  7  2  0
  9  1  1  0
 10  9  1  0
 11 10  2  0
 12 11  1  0
 13 12  2  0
 13 14  1  0
 14 10  1  0
 15 13  1  0
  4 16  1  0
  5 17  1  0
  7 18  1  0
 11 19  1  0
 12 20  1  0
 15 21  1  0
 15 22  1  0
M  ISO  5  16  14  17  14  18  14  19  14  20  14
M  END
>  <minimizedAffinity>  (1) 
-4.48838425

>  <minimizedRMSD>  (1) 
0.129847303

$$$$
