
     RDKit          3D

 22 23  0  0  0  0  0  0  0  0999 V2000
   47.2810   34.7650   42.0340 C   0  0  0  0  0  0  0  0  0  0  0  0
   48.1860   35.5530   41.7060 O   0  0  0  0  0  0  0  0  0  0  0  0
   46.4210   34.8170   43.1680 C   0  0  0  0  0  0  0  0  0  0  0  0
   45.5290   35.8840   43.1320 C   0  0  0  0  0  0  0  0  0  0  0  0
   44.6370   36.0200   44.2110 C   0  0  0  0  0  0  0  0  0  0  0  0
   44.7010   35.1120   45.2060 N   0  0  0  0  0  0  0  0  0  0  0  0
   45.5880   34.0860   45.1980 C   0  0  0  0  0  0  0  0  0  0  0  0
   46.4590   33.9390   44.1640 N   0  0  0  0  0  0  0  0  0  0  0  0
   47.0780   33.6840   41.1770 O   0  0  0  0  0  0  0  0  0  0  0  0
   47.3640   33.7890   39.8010 C   0  0  0  0  0  0  0  0  0  0  0  0
   48.3180   34.5250   39.1370 C   0  0  0  0  0  0  0  0  0  0  0  0
   48.1790   34.2740   37.7810 C   0  0  0  0  0  0  0  0  0  0  0  0
   47.1340   33.3870   37.6840 C   0  0  0  0  0  0  0  0  0  0  0  0
   46.6760   33.1220   38.8820 O   0  0  0  0  0  0  0  0  0  0  0  0
   46.6260   32.8390   36.4410 C   0  0  0  0  0  0  0  0  0  0  0  0
   45.3850   32.9390   36.1550 O   0  0  0  0  0  0  0  0  0  0  0  0
   45.5216   36.5941   42.2919 H   0  0  0  0  0  0  0  0  0  0  0  0
   43.9082   36.8433   44.2423 H   0  0  0  0  0  0  0  0  0  0  0  0
   45.6029   33.3691   46.0322 H   0  0  0  0  0  0  0  0  0  0  0  0
   49.0590   35.1935   39.5997 H   0  0  0  0  0  0  0  0  0  0  0  0
   48.7768   34.6946   36.9590 H   0  0  0  0  0  0  0  0  0  0  0  0
   47.3111   32.3360   35.7427 H   0  0  0  0  0  0  0  0  0  0  0  0
  1  3  1  0
  2  1  2  0
  3  8  1  0
  4  3  2  0
  4  5  1  0
  5  6  2  0
  7  6  1  0
  8  7  2  0
  9  1  1  0
 10  9  1  0
 11 10  2  0
 12 11  1  0
 13 12  2  0
 13 14  1  0
 14 10  1  0
 15 13  1  0
 16 15  2  0
  4 17  1  0
  5 18  1  0
  7 19  1  0
 11 20  1  0
 12 21  1  0
 15 22  1  0
M  ISO  6  17  14  18  14  19  14  20  14  21  14  22   6
M  END
>  <minimizedAffinity>  (1) 
-4.34265137

>  <minimizedRMSD>  (1) 
0.30905658

$$$$
