
     RDKit          3D

 35 38  0  0  1  0  0  0  0  0999 V2000
   47.5110   33.7250   39.6710 C   0  0  0  0  0  0  0  0  0  0  0  0
   48.3510   34.4480   38.8320 C   0  0  0  0  0  0  0  0  0  0  0  0
   47.9350   34.2620   37.5200 C   0  0  0  0  0  0  0  0  0  0  0  0
   46.8530   33.4270   37.6310 C   0  0  0  0  0  0  0  0  0  0  0  0
   46.6110   33.1160   38.8890 O   0  0  0  0  0  0  0  0  0  0  0  0
   46.0580   32.9400   36.4930 C   0  0  2  0  0  0  0  0  0  0  0  0
   45.3530   31.6450   36.6060 C   0  0  0  0  0  0  0  0  0  0  0  0
   46.6330   31.6570   35.8480 C   0  0  2  0  0  0  0  0  0  0  0  0
   47.8780   31.1160   36.3870 C   0  0  0  0  0  0  0  0  0  0  0  0
   49.0600   31.3830   35.6870 C   0  0  0  0  0  0  0  0  0  0  0  0
   50.2970   30.9220   36.1040 C   0  0  0  0  0  0  0  0  0  0  0  0
   50.3380   30.1820   37.2460 N   0  0  0  0  0  0  0  0  0  0  0  0
   49.1910   29.9170   37.9360 C   0  0  0  0  0  0  0  0  0  0  0  0
   48.0010   30.3850   37.4940 N   0  0  0  0  0  0  0  0  0  0  0  0
   47.5010   33.5820   41.0740 O   0  0  0  0  0  0  0  0  0  0  0  0
   47.5290   34.7340   41.8910 C   0  0  0  0  0  0  0  0  0  0  0  0
   48.3550   35.6210   41.5650 O   0  0  0  0  0  0  0  0  0  0  0  0
   46.6170   34.7480   42.9860 C   0  0  0  0  0  0  0  0  0  0  0  0
   45.6630   35.7260   42.9170 C   0  0  0  0  0  0  0  0  0  0  0  0
   44.7300   35.8010   43.9610 C   0  0  0  0  0  0  0  0  0  0  0  0
   44.8230   34.9140   44.9650 N   0  0  0  0  0  0  0  0  0  0  0  0
   45.7710   33.9710   44.9960 C   0  0  0  0  0  0  0  0  0  0  0  0
   46.6570   33.9060   43.9990 N   0  0  0  0  0  0  0  0  0  0  0  0
   49.2032   35.0647   39.1536 H   0  0  0  0  0  0  0  0  0  0  0  0
   48.3722   34.6862   36.6041 H   0  0  0  0  0  0  0  0  0  0  0  0
   45.7398   33.9443   36.1765 H   0  0  0  0  0  0  0  0  0  0  0  0
   45.3051   31.1373   37.5807 H   0  0  0  0  0  0  0  0  0  0  0  0
   44.3318   31.3117   36.3691 H   0  0  0  0  0  0  0  0  0  0  0  0
   46.9265   31.3085   34.8468 H   0  0  0  0  0  0  0  0  0  0  0  0
   49.0039   31.9840   34.7674 H   0  0  0  0  0  0  0  0  0  0  0  0
   51.2114   31.1450   35.5346 H   0  0  0  0  0  0  0  0  0  0  0  0
   49.2342   29.3187   38.8580 H   0  0  0  0  0  0  0  0  0  0  0  0
   45.6290   36.4292   42.0718 H   0  0  0  0  0  0  0  0  0  0  0  0
   43.9412   36.5676   43.9577 H   0  0  0  0  0  0  0  0  0  0  0  0
   45.8202   33.2580   45.8322 H   0  0  0  0  0  0  0  0  0  0  0  0
  1 15  1  0
  2  1  2  0
  3  4  2  0
  3  2  1  0
  4  5  1  0
  5  1  1  0
  6  7  1  0
  6  4  1  0
  8  9  1  0
  8  6  1  0
  8  7  1  0
  9 14  2  0
 10 11  2  0
 10  9  1  0
 11 12  1  0
 12 13  2  0
 14 13  1  0
 15 16  1  0
 16 18  1  0
 17 16  2  0
 18 23  1  0
 19 18  2  0
 19 20  1  0
 20 21  2  0
 21 22  1  0
 23 22  2  0
  2 24  1  0
  3 25  1  0
  6 26  1  6
  7 27  1  0
  7 28  1  0
  8 29  1  6
 10 30  1  0
 11 31  1  0
 13 32  1  0
 19 33  1  0
 20 34  1  0
 22 35  1  0
M  ISO  8  24  14  25  14  26  13  27  13  28  13  29  13  30  14  31  14
M  ISO  4  32  14  33  14  34  14  35  14
M  END
>  <minimizedAffinity>  (1) 
-4.56449747

>  <minimizedRMSD>  (1) 
0.956241906

$$$$
