
     RDKit          3D

 28 30  0  0  1  0  0  0  0  0999 V2000
   47.2730   33.6450   39.8080 C   0  0  0  0  0  0  0  0  0  0  0  0
   48.2220   34.2060   38.9550 C   0  0  0  0  0  0  0  0  0  0  0  0
   47.7900   34.0510   37.6490 C   0  0  0  0  0  0  0  0  0  0  0  0
   46.5910   33.3990   37.7710 C   0  0  0  0  0  0  0  0  0  0  0  0
   46.2980   33.1640   39.0350 O   0  0  0  0  0  0  0  0  0  0  0  0
   45.7290   33.0070   36.6490 C   0  0  2  0  0  0  0  0  0  0  0  0
   44.7610   31.9050   36.8080 C   0  0  0  0  0  0  0  0  0  0  0  0
   46.0340   31.6070   36.0840 C   0  0  1  0  0  0  0  0  0  0  0  0
   45.9130   31.5370   34.7030 O   0  0  0  0  0  0  0  0  0  0  0  0
   47.2330   33.5430   41.2140 O   0  0  0  0  0  0  0  0  0  0  0  0
   47.3370   34.7190   41.9950 C   0  0  0  0  0  0  0  0  0  0  0  0
   48.1870   35.5660   41.6270 O   0  0  0  0  0  0  0  0  0  0  0  0
   46.4540   34.7980   43.1140 C   0  0  0  0  0  0  0  0  0  0  0  0
   45.5750   35.8450   43.0800 C   0  0  0  0  0  0  0  0  0  0  0  0
   44.6770   35.9880   44.1450 C   0  0  0  0  0  0  0  0  0  0  0  0
   44.7270   35.0840   45.1480 N   0  0  0  0  0  0  0  0  0  0  0  0
   45.6080   34.0740   45.1350 C   0  0  0  0  0  0  0  0  0  0  0  0
   46.4640   33.9360   44.1240 N   0  0  0  0  0  0  0  0  0  0  0  0
   49.1584   34.6912   39.2676 H   0  0  0  0  0  0  0  0  0  0  0  0
   48.2931   34.3761   36.7264 H   0  0  0  0  0  0  0  0  0  0  0  0
   45.6333   34.0368   36.2745 H   0  0  0  0  0  0  0  0  0  0  0  0
   44.5892   31.4727   37.8048 H   0  0  0  0  0  0  0  0  0  0  0  0
   43.6961   31.7832   36.5607 H   0  0  0  0  0  0  0  0  0  0  0  0
   46.8359   30.8609   36.1853 H   0  0  0  0  0  0  0  0  0  0  0  0
   45.0804   31.0553   34.4687 H   0  0  0  0  0  0  0  0  0  0  0  0
   45.5734   36.5549   42.2397 H   0  0  0  0  0  0  0  0  0  0  0  0
   43.9506   36.8138   44.1645 H   0  0  0  0  0  0  0  0  0  0  0  0
   45.6242   33.3533   45.9659 H   0  0  0  0  0  0  0  0  0  0  0  0
  1 10  1  0
  2  1  2  0
  3  4  2  0
  3  2  1  0
  4  5  1  0
  5  1  1  0
  6  7  1  0
  6  4  1  0
  8  6  1  0
  8  7  1  0
  9  8  1  0
 10 11  1  0
 11 13  1  0
 12 11  2  0
 13 18  1  0
 14 13  2  0
 14 15  1  0
 15 16  2  0
 17 16  1  0
 18 17  2  0
  2 19  1  0
  3 20  1  0
  6 21  1  6
  7 22  1  0
  7 23  1  0
  8 24  1  1
  9 25  1  0
 14 26  1  0
 15 27  1  0
 17 28  1  0
M  ISO  8  19  14  20  14  21  13  22  13  23  13  24  13  25   3  26  14
M  ISO  2  27  14  28  14
M  END
>  <minimizedAffinity>  (1) 
-4.41451883

>  <minimizedRMSD>  (1) 
0.0541410893

$$$$
