
     RDKit          3D

 31 33  0  0  1  0  0  0  0  0999 V2000
   47.3720   33.7380   39.7640 C   0  0  0  0  0  0  0  0  0  0  0  0
   48.3140   34.4400   39.0140 C   0  0  0  0  0  0  0  0  0  0  0  0
   48.0450   34.2540   37.6720 C   0  0  0  0  0  0  0  0  0  0  0  0
   46.9440   33.4390   37.6650 C   0  0  0  0  0  0  0  0  0  0  0  0
   46.5640   33.1470   38.8940 O   0  0  0  0  0  0  0  0  0  0  0  0
   46.2690   32.9560   36.4460 C   0  0  2  0  0  0  0  0  0  0  0  0
   46.0750   31.5070   36.2480 C   0  0  0  0  0  0  0  0  0  0  0  0
   47.1940   32.1650   35.5020 C   0  0  1  0  0  0  0  0  0  0  0  0
   48.0640   32.6420   33.2290 C   0  0  0  0  0  0  0  0  0  0  0  0
   49.2740   32.6010   33.6330 O   0  0  0  0  0  0  0  0  0  0  0  0
   46.9500   32.4340   34.1010 N   0  0  0  0  0  0  0  0  0  0  0  0
   47.1990   33.6020   41.1580 O   0  0  0  0  0  0  0  0  0  0  0  0
   47.3410   34.7430   41.9840 C   0  0  0  0  0  0  0  0  0  0  0  0
   48.2220   35.5740   41.6510 O   0  0  0  0  0  0  0  0  0  0  0  0
   46.4590   34.8110   43.1000 C   0  0  0  0  0  0  0  0  0  0  0  0
   45.5710   35.8510   43.0840 C   0  0  0  0  0  0  0  0  0  0  0  0
   44.6760   35.9820   44.1440 C   0  0  0  0  0  0  0  0  0  0  0  0
   44.7260   35.0770   45.1370 N   0  0  0  0  0  0  0  0  0  0  0  0
   45.6090   34.0650   45.1280 C   0  0  0  0  0  0  0  0  0  0  0  0
   46.4590   33.9570   44.1030 N   0  0  0  0  0  0  0  0  0  0  0  0
   49.1372   35.0436   39.4239 H   0  0  0  0  0  0  0  0  0  0  0  0
   48.5889   34.6651   36.8088 H   0  0  0  0  0  0  0  0  0  0  0  0
   45.5863   33.8165   36.3874 H   0  0  0  0  0  0  0  0  0  0  0  0
   46.3044   30.8111   37.0685 H   0  0  0  0  0  0  0  0  0  0  0  0
   45.2186   30.8856   35.9473 H   0  0  0  0  0  0  0  0  0  0  0  0
   48.2735   31.9800   35.4001 H   0  0  0  0  0  0  0  0  0  0  0  0
   47.8700   32.8459   32.1656 H   0  0  0  0  0  0  0  0  0  0  0  0
   45.9873   32.4750   33.7371 H   0  0  0  0  0  0  0  0  0  0  0  0
   45.5634   36.5696   42.2512 H   0  0  0  0  0  0  0  0  0  0  0  0
   43.9468   36.8053   44.1677 H   0  0  0  0  0  0  0  0  0  0  0  0
   45.6320   33.3364   45.9518 H   0  0  0  0  0  0  0  0  0  0  0  0
  1 12  1  0
  2  1  2  0
  3  2  1  0
  4  3  2  0
  4  5  1  0
  5  1  1  0
  6  4  1  0
  7  6  1  0
  8  7  1  0
  8  6  1  0
  9 10  2  0
  9 11  1  0
 11  8  1  0
 12 13  1  0
 13 15  1  0
 14 13  2  0
 15 20  1  0
 16 15  2  0
 16 17  1  0
 17 18  2  0
 19 18  1  0
 20 19  2  0
  2 21  1  0
  3 22  1  0
  6 23  1  6
  7 24  1  0
  7 25  1  0
  8 26  1  1
  9 27  1  0
 11 28  1  0
 16 29  1  0
 17 30  1  0
 19 31  1  0
M  ISO  8  21  14  22  14  23  13  24  13  25  13  26  13  27   6  29  14
M  ISO  2  30  14  31  14
M  END
>  <minimizedAffinity>  (1) 
-4.96962166

>  <minimizedRMSD>  (1) 
1.04437017

$$$$
