
     RDKit          3D

 38 41  0  0  1  0  0  0  0  0999 V2000
   47.6000   33.7160   39.5050 C   0  0  0  0  0  0  0  0  0  0  0  0
   48.4190   34.5280   38.7150 C   0  0  0  0  0  0  0  0  0  0  0  0
   48.0770   34.3490   37.3880 C   0  0  0  0  0  0  0  0  0  0  0  0
   47.0700   33.4400   37.4280 C   0  0  0  0  0  0  0  0  0  0  0  0
   46.7910   33.0680   38.6690 O   0  0  0  0  0  0  0  0  0  0  0  0
   46.3610   32.9210   36.2360 C   0  0  2  0  0  0  0  0  0  0  0  0
   46.2080   31.4820   36.0290 C   0  0  0  0  0  0  0  0  0  0  0  0
   47.2870   32.1530   35.2590 C   0  0  1  0  0  0  0  0  0  0  0  0
   48.0520   32.7290   32.9680 C   0  0  0  0  0  0  0  0  0  0  0  0
   49.2600   32.8230   33.3280 O   0  0  0  0  0  0  0  0  0  0  0  0
   46.9860   32.4380   33.8580 N   0  0  0  0  0  0  0  0  0  0  0  0
   47.5300   33.5170   40.9070 O   0  0  0  0  0  0  0  0  0  0  0  0
   47.5390   34.6400   41.7510 C   0  0  0  0  0  0  0  0  0  0  0  0
   48.3370   35.5680   41.4310 O   0  0  0  0  0  0  0  0  0  0  0  0
   46.6600   34.6210   42.8650 C   0  0  0  0  0  0  0  0  0  0  0  0
   45.7690   35.6430   42.9440 C   0  0  0  0  0  0  0  0  0  0  0  0
   44.8790   35.6800   44.0140 C   0  0  0  0  0  0  0  0  0  0  0  0
   44.9430   34.6890   44.9330 N   0  0  0  0  0  0  0  0  0  0  0  0
   45.8340   33.6890   44.8310 C   0  0  0  0  0  0  0  0  0  0  0  0
   46.6590   33.7010   43.7920 N   0  0  0  0  0  0  0  0  0  0  0  0
   45.9370   32.5790   45.8200 C   0  0  0  0  0  0  0  0  0  0  0  0
   45.4910   32.9640   47.2360 C   0  0  0  0  0  0  0  0  0  0  0  0
   46.9400   32.6560   46.9120 C   0  0  0  0  0  0  0  0  0  0  0  0
   49.2064   35.1993   39.0883 H   0  0  0  0  0  0  0  0  0  0  0  0
   48.5188   34.8317   36.5038 H   0  0  0  0  0  0  0  0  0  0  0  0
   45.6438   33.7547   36.2117 H   0  0  0  0  0  0  0  0  0  0  0  0
   46.4743   30.7882   36.8400 H   0  0  0  0  0  0  0  0  0  0  0  0
   45.3584   30.8444   35.7435 H   0  0  0  0  0  0  0  0  0  0  0  0
   48.3657   31.9845   35.1252 H   0  0  0  0  0  0  0  0  0  0  0  0
   47.8138   32.8814   31.9050 H   0  0  0  0  0  0  0  0  0  0  0  0
   46.0128   32.4278   33.5209 H   0  0  0  0  0  0  0  0  0  0  0  0
   45.7508   36.4291   42.1747 H   0  0  0  0  0  0  0  0  0  0  0  0
   44.1439   36.4927   44.1096 H   0  0  0  0  0  0  0  0  0  0  0  0
   45.7023   31.7998   45.0799 H   0  0  0  0  0  0  0  0  0  0  0  0
   45.1793   33.9952   47.4583 H   0  0  0  0  0  0  0  0  0  0  0  0
   44.7484   32.5913   47.9568 H   0  0  0  0  0  0  0  0  0  0  0  0
   47.4011   31.7340   47.2957 H   0  0  0  0  0  0  0  0  0  0  0  0
   47.8897   33.1943   47.0476 H   0  0  0  0  0  0  0  0  0  0  0  0
  1 12  1  0
  2  1  2  0
  3  4  2  0
  3  2  1  0
  4  5  1  0
  5  1  1  0
  6  4  1  0
  7  6  1  0
  8  7  1  0
  8  6  1  0
  9 10  2  0
  9 11  1  0
 11  8  1  0
 12 13  1  0
 13 15  1  0
 14 13  2  0
 15 16  2  0
 15 20  1  0
 16 17  1  0
 17 18  2  0
 19 18  1  0
 19 21  1  0
 20 19  2  0
 21 23  1  0
 21 22  1  0
 23 22  1  0
  2 24  1  0
  3 25  1  0
  6 26  1  6
  7 27  1  0
  7 28  1  0
  8 29  1  1
  9 30  1  0
 11 31  1  0
 16 32  1  0
 17 33  1  0
 21 34  1  0
 22 35  1  0
 22 36  1  0
 23 37  1  0
 23 38  1  0
M  ISO  8  24  14  25  14  26  13  27  13  28  13  29  13  30   6  32  14
M  ISO  6  33  14  34  13  35  13  36  13  37  13  38  13
M  END
>  <minimizedAffinity>  (1) 
-5.40745258

>  <minimizedRMSD>  (1) 
0.461978406

$$$$
