
     RDKit          3D

 34 36  0  0  1  0  0  0  0  0999 V2000
   47.3920   33.7220   39.7450 C   0  0  0  0  0  0  0  0  0  0  0  0
   48.3230   34.4380   38.9830 C   0  0  0  0  0  0  0  0  0  0  0  0
   48.0370   34.2560   37.6460 C   0  0  0  0  0  0  0  0  0  0  0  0
   46.9510   33.4410   37.6560 C   0  0  0  0  0  0  0  0  0  0  0  0
   46.5680   33.1250   38.8830 O   0  0  0  0  0  0  0  0  0  0  0  0
   46.2680   32.9610   36.4320 C   0  0  2  0  0  0  0  0  0  0  0  0
   46.0470   31.5300   36.2200 C   0  0  0  0  0  0  0  0  0  0  0  0
   47.1910   32.1400   35.4920 C   0  0  1  0  0  0  0  0  0  0  0  0
   48.0740   32.6320   33.2230 C   0  0  0  0  0  0  0  0  0  0  0  0
   49.2740   32.6090   33.6230 O   0  0  0  0  0  0  0  0  0  0  0  0
   46.9620   32.4320   34.0810 N   0  0  0  0  0  0  0  0  0  0  0  0
   47.2290   33.5670   41.1460 O   0  0  0  0  0  0  0  0  0  0  0  0
   47.3500   34.7190   41.9660 C   0  0  0  0  0  0  0  0  0  0  0  0
   48.2160   35.5700   41.6200 O   0  0  0  0  0  0  0  0  0  0  0  0
   46.4730   34.7810   43.0900 C   0  0  0  0  0  0  0  0  0  0  0  0
   45.5130   35.7390   43.0450 C   0  0  0  0  0  0  0  0  0  0  0  0
   44.6220   35.8560   44.1100 C   0  0  0  0  0  0  0  0  0  0  0  0
   44.7580   35.0040   45.1400 N   0  0  0  0  0  0  0  0  0  0  0  0
   45.7120   34.0720   45.1550 C   0  0  0  0  0  0  0  0  0  0  0  0
   46.5520   33.9750   44.1340 N   0  0  0  0  0  0  0  0  0  0  0  0
   45.7970   33.1610   46.3400 C   0  0  0  0  0  0  0  0  0  0  0  0
   49.1472   35.0458   39.3846 H   0  0  0  0  0  0  0  0  0  0  0  0
   48.5649   34.6732   36.7758 H   0  0  0  0  0  0  0  0  0  0  0  0
   45.6006   33.8336   36.3761 H   0  0  0  0  0  0  0  0  0  0  0  0
   46.2435   30.8256   37.0417 H   0  0  0  0  0  0  0  0  0  0  0  0
   45.1765   30.9378   35.9014 H   0  0  0  0  0  0  0  0  0  0  0  0
   48.2640   31.9151   35.4017 H   0  0  0  0  0  0  0  0  0  0  0  0
   47.8831   32.8165   32.1555 H   0  0  0  0  0  0  0  0  0  0  0  0
   46.0025   32.4923   33.7114 H   0  0  0  0  0  0  0  0  0  0  0  0
   45.4392   36.4140   42.1796 H   0  0  0  0  0  0  0  0  0  0  0  0
   43.8323   36.6217   44.1075 H   0  0  0  0  0  0  0  0  0  0  0  0
   45.7416   33.7552   47.2640 H   0  0  0  0  0  0  0  0  0  0  0  0
   44.9617   32.4458   46.3133 H   0  0  0  0  0  0  0  0  0  0  0  0
   46.7502   32.6127   46.3133 H   0  0  0  0  0  0  0  0  0  0  0  0
  1 12  1  0
  2  1  2  0
  3  4  2  0
  3  2  1  0
  4  5  1  0
  5  1  1  0
  6  4  1  0
  7  6  1  0
  8  7  1  0
  8  6  1  0
  9 10  2  0
  9 11  1  0
 11  8  1  0
 12 13  1  0
 13 15  1  0
 14 13  2  0
 15 20  1  0
 16 15  2  0
 16 17  1  0
 17 18  2  0
 18 19  1  0
 19 21  1  0
 20 19  2  0
  2 22  1  0
  3 23  1  0
  6 24  1  6
  7 25  1  0
  7 26  1  0
  8 27  1  1
  9 28  1  0
 11 29  1  0
 16 30  1  0
 17 31  1  0
 21 32  1  0
 21 33  1  0
 21 34  1  0
M  ISO  8  22  14  23  14  24  13  25  13  26  13  27  13  28   6  30  14
M  ISO  4  31  14  32   8  33   8  34   8
M  END
>  <minimizedAffinity>  (1) 
-5.24764156

>  <minimizedRMSD>  (1) 
0.0802625865

$$$$
