
     RDKit          3D

 39 42  0  0  0  0  0  0  0  0999 V2000
   45.6960   31.7160   47.0970 C   0  0  0  0  0  0  0  0  0  0  0  0
   45.6590   32.1500   48.4090 C   0  0  0  0  0  0  0  0  0  0  0  0
   45.3880   31.3210   49.4760 C   0  0  0  0  0  0  0  0  0  0  0  0
   45.1420   29.9900   49.2050 C   0  0  0  0  0  0  0  0  0  0  0  0
   45.1690   29.5320   47.8990 C   0  0  0  0  0  0  0  0  0  0  0  0
   45.4440   30.4190   46.9460 N   0  0  0  0  0  0  0  0  0  0  0  0
   44.8060   36.5120   43.5610 C   0  0  0  0  0  0  0  0  0  0  0  0
   45.7960   36.2400   42.6070 C   0  0  0  0  0  0  0  0  0  0  0  0
   46.5200   35.0630   42.7490 C   0  0  0  0  0  0  0  0  0  0  0  0
   46.2380   34.2320   43.8010 N   0  0  0  0  0  0  0  0  0  0  0  0
   45.2630   34.5490   44.6960 C   0  0  0  0  0  0  0  0  0  0  0  0
   44.5380   35.6880   44.5890 N   0  0  0  0  0  0  0  0  0  0  0  0
   45.9890   32.6280   45.9930 C   0  0  0  0  0  0  0  0  0  0  0  0
   47.0420   32.4710   45.3370 O   0  0  0  0  0  0  0  0  0  0  0  0
   45.0240   33.6430   45.7540 N   0  0  0  0  0  0  0  0  0  0  0  0
   45.0120   28.1850   47.4130 C   0  0  0  0  0  0  0  0  0  0  0  0
   45.9310   27.2050   47.8210 C   0  0  0  0  0  0  0  0  0  0  0  0
   45.9250   25.9020   47.4380 C   0  0  0  0  0  0  0  0  0  0  0  0
   44.9510   25.4520   46.5730 C   0  0  0  0  0  0  0  0  0  0  0  0
   44.0270   26.3500   46.1350 C   0  0  0  0  0  0  0  0  0  0  0  0
   43.0670   25.9280   45.2410 C   0  0  0  0  0  0  0  0  0  0  0  0
   42.1100   26.7930   44.7150 C   0  0  0  0  0  0  0  0  0  0  0  0
   42.1710   28.1260   45.1410 C   0  0  0  0  0  0  0  0  0  0  0  0
   43.1480   28.4960   46.0330 C   0  0  0  0  0  0  0  0  0  0  0  0
   44.0900   27.6520   46.5590 C   0  0  0  0  0  0  0  0  0  0  0  0
   45.8562   33.2130   48.6120 H   0  0  0  0  0  0  0  0  0  0  0  0
   45.3684   31.7060   50.5063 H   0  0  0  0  0  0  0  0  0  0  0  0
   44.9243   29.2928   50.0275 H   0  0  0  0  0  0  0  0  0  0  0  0
   44.2230   37.4398   43.4645 H   0  0  0  0  0  0  0  0  0  0  0  0
   45.9926   36.9334   41.7760 H   0  0  0  0  0  0  0  0  0  0  0  0
   47.3081   34.8021   42.0274 H   0  0  0  0  0  0  0  0  0  0  0  0
   44.1761   33.7163   46.3341 H   0  0  0  0  0  0  0  0  0  0  0  0
   46.7264   27.5206   48.5122 H   0  0  0  0  0  0  0  0  0  0  0  0
   46.6925   25.2104   47.8157 H   0  0  0  0  0  0  0  0  0  0  0  0
   44.9214   24.4017   46.2474 H   0  0  0  0  0  0  0  0  0  0  0  0
   43.0560   24.8723   44.9322 H   0  0  0  0  0  0  0  0  0  0  0  0
   41.3465   26.4473   44.0025 H   0  0  0  0  0  0  0  0  0  0  0  0
   41.4475   28.8653   44.7669 H   0  0  0  0  0  0  0  0  0  0  0  0
   43.1760   29.5494   46.3486 H   0  0  0  0  0  0  0  0  0  0  0  0
  1  2  2  0
  2  3  1  0
  4  3  2  0
  5  4  1  0
  6  1  1  0
  6  5  2  0
  7 12  2  0
  8  9  2  0
  8  7  1  0
  9 10  1  0
 10 11  2  0
 11 15  1  0
 12 11  1  0
 13  1  1  0
 14 13  2  0
 15 13  1  0
 16 17  2  0
 16  5  1  0
 18 17  1  0
 19 18  2  0
 20 25  2  0
 20 19  1  0
 21 20  1  0
 22 23  1  0
 22 21  2  0
 23 24  2  0
 24 25  1  0
 25 16  1  0
  2 26  1  0
  3 27  1  0
  4 28  1  0
  7 29  1  0
  8 30  1  0
  9 31  1  0
 15 32  1  0
 17 33  1  0
 18 34  1  0
 19 35  1  0
 21 36  1  0
 22 37  1  0
 23 38  1  0
 24 39  1  0
M  ISO  8  26  14  27  14  28  14  29  14  30  14  31  14  33  14  34  14
M  ISO  5  35  14  36  14  37  14  38  14  39  14
M  END
>  <minimizedAffinity>  (1) 
-6.0159483

>  <minimizedRMSD>  (1) 
0.686235547

$$$$
