
     RDKit          3D

 14 14  0  0  0  0  0  0  0  0999 V2000
   44.9960   35.4060   44.1790 C   0  0  0  0  0  0  0  0  0  0  0  0
   45.9690   35.1080   43.1900 C   0  0  0  0  0  0  0  0  0  0  0  0
   46.8590   34.0600   43.4810 C   0  0  0  0  0  0  0  0  0  0  0  0
   46.7440   33.4020   44.6700 N   0  0  0  0  0  0  0  0  0  0  0  0
   45.7960   33.7340   45.5700 C   0  0  0  0  0  0  0  0  0  0  0  0
   44.9380   34.7220   45.3220 N   0  0  0  0  0  0  0  0  0  0  0  0
   44.1350   36.4220   43.8910 O   0  0  0  0  0  0  0  0  0  0  0  0
   45.7460   32.9600   46.8390 C   0  0  0  0  0  0  0  0  0  0  0  0
   46.0238   35.6681   42.2448 H   0  0  0  0  0  0  0  0  0  0  0  0
   47.6382   33.7742   42.7591 H   0  0  0  0  0  0  0  0  0  0  0  0
   44.2106   36.9060   43.0307 H   0  0  0  0  0  0  0  0  0  0  0  0
   45.7907   33.6522   47.6927 H   0  0  0  0  0  0  0  0  0  0  0  0
   44.8089   32.3855   46.8814 H   0  0  0  0  0  0  0  0  0  0  0  0
   46.6014   32.2698   46.8814 H   0  0  0  0  0  0  0  0  0  0  0  0
  1  6  2  0
  2  3  2  0
  2  1  1  0
  3  4  1  0
  4  5  2  0
  5  8  1  0
  6  5  1  0
  7  1  1  0
  2  9  1  0
  3 10  1  0
  7 11  1  0
  8 12  1  0
  8 13  1  0
  8 14  1  0
M  ISO  6   9  14  10  14  11   3  12   8  13   8  14   8
M  END
>  <minimizedAffinity>  (1) 
-3.33476448

>  <minimizedRMSD>  (1) 
0.428290009

$$$$
