
     RDKit          3D

 37 39  0  0  0  0  0  0  0  0999 V2000
   45.7620   31.7600   47.1010 C   0  0  0  0  0  0  0  0  0  0  0  0
   45.4890   32.2360   48.3790 C   0  0  0  0  0  0  0  0  0  0  0  0
   45.2730   31.4320   49.4830 C   0  0  0  0  0  0  0  0  0  0  0  0
   45.3380   30.0790   49.2810 C   0  0  0  0  0  0  0  0  0  0  0  0
   45.6100   29.5840   48.0150 C   0  0  0  0  0  0  0  0  0  0  0  0
   45.8090   30.4270   46.9860 N   0  0  0  0  0  0  0  0  0  0  0  0
   45.6980   28.2100   47.7050 N   0  0  0  0  0  0  0  0  0  0  0  0
   46.9550   27.4960   47.4630 C   0  0  0  0  0  0  0  0  0  0  0  0
   46.7620   26.0220   47.6850 C   0  0  0  0  0  0  0  0  0  0  0  0
   45.9190   25.7060   48.8190 N   0  0  0  0  0  0  0  0  0  0  0  0
   44.6510   26.3780   48.8050 C   0  0  0  0  0  0  0  0  0  0  0  0
   44.5760   27.2980   47.5800 C   0  0  0  0  0  0  0  0  0  0  0  0
   44.7520   36.6530   43.7160 C   0  0  0  0  0  0  0  0  0  0  0  0
   45.6350   36.3530   42.6790 C   0  0  0  0  0  0  0  0  0  0  0  0
   46.3150   35.1410   42.7370 C   0  0  0  0  0  0  0  0  0  0  0  0
   46.0990   34.3010   43.7900 N   0  0  0  0  0  0  0  0  0  0  0  0
   45.2260   34.6430   44.7760 C   0  0  0  0  0  0  0  0  0  0  0  0
   44.5520   35.8140   44.7420 N   0  0  0  0  0  0  0  0  0  0  0  0
   45.9760   32.6770   45.9970 C   0  0  0  0  0  0  0  0  0  0  0  0
   46.9650   32.4950   45.2350 O   0  0  0  0  0  0  0  0  0  0  0  0
   45.0360   33.7350   45.8500 N   0  0  0  0  0  0  0  0  0  0  0  0
   45.4417   33.3258   48.5211 H   0  0  0  0  0  0  0  0  0  0  0  0
   45.0595   31.8580   50.4744 H   0  0  0  0  0  0  0  0  0  0  0  0
   45.1749   29.3873   50.1206 H   0  0  0  0  0  0  0  0  0  0  0  0
   47.7250   27.8703   48.1537 H   0  0  0  0  0  0  0  0  0  0  0  0
   47.2712   27.6654   46.4231 H   0  0  0  0  0  0  0  0  0  0  0  0
   46.3035   25.5926   46.7820 H   0  0  0  0  0  0  0  0  0  0  0  0
   47.7546   25.5978   47.8964 H   0  0  0  0  0  0  0  0  0  0  0  0
   45.7479   24.6903   48.8231 H   0  0  0  0  0  0  0  0  0  0  0  0
   43.8420   25.6343   48.7556 H   0  0  0  0  0  0  0  0  0  0  0  0
   44.5420   26.9765   49.7215 H   0  0  0  0  0  0  0  0  0  0  0  0
   43.6275   27.8550   47.5761 H   0  0  0  0  0  0  0  0  0  0  0  0
   44.6190   26.7276   46.6404 H   0  0  0  0  0  0  0  0  0  0  0  0
   44.2036   37.6062   43.6912 H   0  0  0  0  0  0  0  0  0  0  0  0
   45.7885   37.0515   41.8432 H   0  0  0  0  0  0  0  0  0  0  0  0
   47.0208   34.8622   41.9407 H   0  0  0  0  0  0  0  0  0  0  0  0
   44.2445   33.8384   46.5010 H   0  0  0  0  0  0  0  0  0  0  0  0
  1  2  2  0
  2  3  1  0
  4  3  2  0
  5  4  1  0
  6  1  1  0
  6  5  2  0
  7  5  1  0
  8  9  1  0
  8  7  1  0
  9 10  1  0
 11 10  1  0
 12  7  1  0
 12 11  1  0
 13 18  2  0
 14 15  2  0
 14 13  1  0
 15 16  1  0
 16 17  2  0
 17 21  1  0
 18 17  1  0
 19  1  1  0
 20 19  2  0
 21 19  1  0
  2 22  1  0
  3 23  1  0
  4 24  1  0
  8 25  1  0
  8 26  1  0
  9 27  1  0
  9 28  1  0
 10 29  1  0
 11 30  1  0
 11 31  1  0
 12 32  1  0
 12 33  1  0
 13 34  1  0
 14 35  1  0
 15 36  1  0
 21 37  1  0
M  ISO  8  22  14  23  14  24  14  25  13  26  13  27  13  28  13  29   5
M  ISO  7  30  13  31  13  32  13  33  13  34  14  35  14  36  14
M  END
>  <minimizedAffinity>  (1) 
-5.92979193

>  <minimizedRMSD>  (1) 
0.327547431

$$$$
