
     RDKit          3D

 38 40  0  0  0  0  0  0  0  0999 V2000
   45.6800   31.6530   47.0860 C   0  0  0  0  0  0  0  0  0  0  0  0
   45.8200   32.0370   48.4110 C   0  0  0  0  0  0  0  0  0  0  0  0
   45.5990   31.2120   49.4900 C   0  0  0  0  0  0  0  0  0  0  0  0
   45.2100   29.9100   49.2030 C   0  0  0  0  0  0  0  0  0  0  0  0
   45.0600   29.4920   47.8670 C   0  0  0  0  0  0  0  0  0  0  0  0
   45.3040   30.3870   46.9060 N   0  0  0  0  0  0  0  0  0  0  0  0
   44.6590   28.1470   47.6250 N   0  0  0  0  0  0  0  0  0  0  0  0
   44.1900   27.8270   46.2950 C   0  0  0  0  0  0  0  0  0  0  0  0
   43.7770   26.4050   46.1320 C   0  0  0  0  0  0  0  0  0  0  0  0
   43.1960   25.8080   47.3920 C   0  0  0  0  0  0  0  0  0  0  0  0
   44.2000   25.8800   48.4980 C   0  0  0  0  0  0  0  0  0  0  0  0
   44.7590   27.2410   48.7240 C   0  0  0  0  0  0  0  0  0  0  0  0
   44.7810   36.5900   43.7410 C   0  0  0  0  0  0  0  0  0  0  0  0
   45.7180   36.3130   42.7380 C   0  0  0  0  0  0  0  0  0  0  0  0
   46.4010   35.1020   42.7970 C   0  0  0  0  0  0  0  0  0  0  0  0
   46.1290   34.2420   43.8240 N   0  0  0  0  0  0  0  0  0  0  0  0
   45.2210   34.5460   44.7670 C   0  0  0  0  0  0  0  0  0  0  0  0
   44.5360   35.7290   44.7330 N   0  0  0  0  0  0  0  0  0  0  0  0
   45.9360   32.5950   46.0090 C   0  0  0  0  0  0  0  0  0  0  0  0
   46.9820   32.4530   45.3070 O   0  0  0  0  0  0  0  0  0  0  0  0
   44.9550   33.6320   45.8260 N   0  0  0  0  0  0  0  0  0  0  0  0
   46.1292   33.0730   48.6137 H   0  0  0  0  0  0  0  0  0  0  0  0
   45.7238   31.5648   50.5244 H   0  0  0  0  0  0  0  0  0  0  0  0
   45.0183   29.2023   50.0230 H   0  0  0  0  0  0  0  0  0  0  0  0
   43.3254   28.4680   46.0680 H   0  0  0  0  0  0  0  0  0  0  0  0
   45.0313   27.9984   45.6074 H   0  0  0  0  0  0  0  0  0  0  0  0
   43.0191   26.3497   45.3367 H   0  0  0  0  0  0  0  0  0  0  0  0
   44.6796   25.8281   45.8820 H   0  0  0  0  0  0  0  0  0  0  0  0
   42.2949   26.3694   47.6800 H   0  0  0  0  0  0  0  0  0  0  0  0
   42.9346   24.7556   47.2075 H   0  0  0  0  0  0  0  0  0  0  0  0
   43.7146   25.5473   49.4273 H   0  0  0  0  0  0  0  0  0  0  0  0
   45.0421   25.2361   48.2043 H   0  0  0  0  0  0  0  0  0  0  0  0
   45.8246   27.1304   48.9737 H   0  0  0  0  0  0  0  0  0  0  0  0
   44.1527   27.6818   49.5290 H   0  0  0  0  0  0  0  0  0  0  0  0
   44.2316   37.5425   43.7115 H   0  0  0  0  0  0  0  0  0  0  0  0
   45.9086   37.0316   41.9272 H   0  0  0  0  0  0  0  0  0  0  0  0
   47.1463   34.8416   42.0310 H   0  0  0  0  0  0  0  0  0  0  0  0
   44.1174   33.7079   46.4206 H   0  0  0  0  0  0  0  0  0  0  0  0
  1  2  2  0
  2  3  1  0
  4  3  2  0
  5  4  1  0
  6  1  1  0
  6  5  2  0
  7  5  1  0
  7 12  1  0
  8  7  1  0
  9  8  1  0
  9 10  1  0
 10 11  1  0
 11 12  1  0
 13 18  2  0
 14 15  2  0
 14 13  1  0
 15 16  1  0
 16 17  2  0
 17 21  1  0
 18 17  1  0
 19  1  1  0
 20 19  2  0
 21 19  1  0
  2 22  1  0
  3 23  1  0
  4 24  1  0
  8 25  1  0
  8 26  1  0
  9 27  1  0
  9 28  1  0
 10 29  1  0
 10 30  1  0
 11 31  1  0
 11 32  1  0
 12 33  1  0
 12 34  1  0
 13 35  1  0
 14 36  1  0
 15 37  1  0
 21 38  1  0
M  ISO  8  22  14  23  14  24  14  25  13  26  13  27  13  28  13  29  13
M  ISO  8  30  13  31  13  32  13  33  13  34  13  35  14  36  14  37  14
M  END
>  <minimizedAffinity>  (1) 
-5.80405951

>  <minimizedRMSD>  (1) 
0.523462057

$$$$
