
     RDKit          3D

 50 53  0  0  1  0  0  0  0  0999 V2000
   47.4360   32.8760   44.3640 C   0  0  2  0  0  0  0  0  0  0  0  0
   47.2760   33.2410   42.9330 C   0  0  1  0  0  0  0  0  0  0  0  0
   47.1050   32.0120   42.0390 C   0  0  0  0  0  0  0  0  0  0  0  0
   48.2160   31.2180   42.3370 O   0  0  0  0  0  0  0  0  0  0  0  0
   48.1010   30.6250   43.5750 C   0  0  0  0  0  0  0  0  0  0  0  0
   47.2130   31.3620   44.5280 C   0  0  1  0  0  0  0  0  0  0  0  0
   45.0480   36.1440   42.8690 C   0  0  0  0  0  0  0  0  0  0  0  0
   43.9430   35.7240   42.0680 C   0  0  0  0  0  0  0  0  0  0  0  0
   44.0240   34.3940   41.5640 C   0  0  0  0  0  0  0  0  0  0  0  0
   45.1040   33.6370   41.8630 N   0  0  0  0  0  0  0  0  0  0  0  0
   46.1160   34.1010   42.6280 C   0  0  0  0  0  0  0  0  0  0  0  0
   46.0890   35.3590   43.1350 N   0  0  0  0  0  0  0  0  0  0  0  0
   44.9780   37.4110   43.3560 O   0  0  0  0  0  0  0  0  0  0  0  0
   46.5500   33.5380   45.2180 O   0  0  0  0  0  0  0  0  0  0  0  0
   47.4560   31.0680   45.8500 O   0  0  0  0  0  0  0  0  0  0  0  0
   46.4430   28.5640   45.8240 F   0  0  0  0  0  0  0  0  0  0  0  0
   46.2550   29.4630   46.8110 C   0  0  0  0  0  0  0  0  0  0  0  0
   46.7310   30.7520   46.9090 C   0  0  0  0  0  0  0  0  0  0  0  0
   46.3690   31.4340   48.0600 C   0  0  0  0  0  0  0  0  0  0  0  0
   45.5910   30.9320   49.0810 C   0  0  0  0  0  0  0  0  0  0  0  0
   45.1440   29.6530   48.9380 C   0  0  0  0  0  0  0  0  0  0  0  0
   45.4570   28.8990   47.8210 C   0  0  0  0  0  0  0  0  0  0  0  0
   45.9620   26.4770   47.9330 C   0  0  1  0  0  0  0  0  0  0  0  0
   44.8910   27.5240   47.8200 C   0  0  1  0  0  0  0  0  0  0  0  0
   44.1420   27.4530   49.0040 O   0  0  0  0  0  0  0  0  0  0  0  0
   44.1740   26.1520   49.4260 C   0  0  0  0  0  0  0  0  0  0  0  0
   45.4500   25.5270   48.9650 C   0  0  1  0  0  0  0  0  0  0  0  0
   46.0200   25.8230   46.6860 O   0  0  0  0  0  0  0  0  0  0  0  0
   45.1400   24.2730   48.4460 O   0  0  0  0  0  0  0  0  0  0  0  0
   48.4549   33.1796   44.6463 H   0  0  0  0  0  0  0  0  0  0  0  0
   48.2069   33.7908   42.7302 H   0  0  0  0  0  0  0  0  0  0  0  0
   47.1031   32.2986   40.9770 H   0  0  0  0  0  0  0  0  0  0  0  0
   46.1529   31.4901   42.2154 H   0  0  0  0  0  0  0  0  0  0  0  0
   47.6934   29.6128   43.4362 H   0  0  0  0  0  0  0  0  0  0  0  0
   49.1075   30.6219   44.0188 H   0  0  0  0  0  0  0  0  0  0  0  0
   46.1866   31.0506   44.2840 H   0  0  0  0  0  0  0  0  0  0  0  0
   43.0879   36.3823   41.8547 H   0  0  0  0  0  0  0  0  0  0  0  0
   43.2163   33.9869   40.9380 H   0  0  0  0  0  0  0  0  0  0  0  0
   44.1948   37.9792   43.1466 H   0  0  0  0  0  0  0  0  0  0  0  0
   46.7977   33.3529   46.1585 H   0  0  0  0  0  0  0  0  0  0  0  0
   46.7345   32.4659   48.1681 H   0  0  0  0  0  0  0  0  0  0  0  0
   45.3432   31.5343   49.9675 H   0  0  0  0  0  0  0  0  0  0  0  0
   44.5203   29.2099   49.7283 H   0  0  0  0  0  0  0  0  0  0  0  0
   46.9546   26.8714   48.1961 H   0  0  0  0  0  0  0  0  0  0  0  0
   44.3268   27.3455   46.8927 H   0  0  0  0  0  0  0  0  0  0  0  0
   44.1216   26.1183   50.5242 H   0  0  0  0  0  0  0  0  0  0  0  0
   43.3171   25.6028   49.0088 H   0  0  0  0  0  0  0  0  0  0  0  0
   46.2086   25.3680   49.7456 H   0  0  0  0  0  0  0  0  0  0  0  0
   46.1065   24.8472   46.8289 H   0  0  0  0  0  0  0  0  0  0  0  0
   44.9830   23.6379   49.1891 H   0  0  0  0  0  0  0  0  0  0  0  0
  1  6  1  0
  1 14  1  0
  2  1  1  0
  3  4  1  0
  3  2  1  0
  4  5  1  0
  5  6  1  0
  6 15  1  0
  7 12  2  0
  7 13  1  0
  8  7  1  0
  9 10  1  0
  9  8  2  0
 10 11  2  0
 11  2  1  0
 11 12  1  0
 15 18  1  0
 16 17  1  0
 17 18  2  0
 17 22  1  0
 18 19  1  0
 19 20  2  0
 21 20  1  0
 22 21  2  0
 23 28  1  0
 23 27  1  0
 24 22  1  0
 24 23  1  0
 24 25  1  0
 25 26  1  0
 27 29  1  0
 27 26  1  0
  1 30  1  1
  2 31  1  6
  3 32  1  0
  3 33  1  0
  5 34  1  0
  5 35  1  0
  6 36  1  6
  8 37  1  0
  9 38  1  0
 13 39  1  0
 14 40  1  0
 19 41  1  0
 20 42  1  0
 21 43  1  0
 23 44  1  1
 24 45  1  6
 26 46  1  0
 26 47  1  0
 27 48  1  1
 28 49  1  0
 29 50  1  0
M  ISO  8  30  13  31  13  32  13  33  13  34  13  35  13  36  13  37  14
M  ISO  8  38  14  39   3  40   3  41  14  42  14  43  14  44  13  45  13
M  ISO  5  46  13  47  13  48  13  49   3  50   3
M  END
>  <minimizedAffinity>  (1) 
-5.75193214

>  <minimizedRMSD>  (1) 
0.945175827

$$$$
