
     RDKit          3D

 52 55  0  0  1  0  0  0  0  0999 V2000
   47.4250   33.0640   44.1830 C   0  0  2  0  0  0  0  0  0  0  0  0
   47.3170   33.4600   42.7540 C   0  0  1  0  0  0  0  0  0  0  0  0
   47.2220   32.2460   41.8290 C   0  0  0  0  0  0  0  0  0  0  0  0
   48.3380   31.4740   42.1600 O   0  0  0  0  0  0  0  0  0  0  0  0
   48.1890   30.8560   43.3830 C   0  0  0  0  0  0  0  0  0  0  0  0
   47.2320   31.5400   44.3050 C   0  0  1  0  0  0  0  0  0  0  0  0
   45.0030   36.2960   42.6680 C   0  0  0  0  0  0  0  0  0  0  0  0
   43.9690   35.8750   41.7880 C   0  0  0  0  0  0  0  0  0  0  0  0
   44.1230   34.5780   41.2430 C   0  0  0  0  0  0  0  0  0  0  0  0
   45.2060   33.8400   41.5770 N   0  0  0  0  0  0  0  0  0  0  0  0
   46.1560   34.3000   42.4200 C   0  0  0  0  0  0  0  0  0  0  0  0
   46.0510   35.5290   42.9650 N   0  0  0  0  0  0  0  0  0  0  0  0
   44.8670   37.5400   43.2000 O   0  0  0  0  0  0  0  0  0  0  0  0
   46.4810   33.6840   45.0100 O   0  0  0  0  0  0  0  0  0  0  0  0
   47.4190   31.2280   45.6340 O   0  0  0  0  0  0  0  0  0  0  0  0
   47.0290   28.5580   45.8010 F   0  0  0  0  0  0  0  0  0  0  0  0
   46.5100   29.4660   46.6470 C   0  0  0  0  0  0  0  0  0  0  0  0
   46.6580   30.8340   46.6400 C   0  0  0  0  0  0  0  0  0  0  0  0
   46.0030   31.5150   47.6540 C   0  0  0  0  0  0  0  0  0  0  0  0
   45.2330   30.9340   48.6430 C   0  0  0  0  0  0  0  0  0  0  0  0
   45.1240   29.5790   48.5970 C   0  0  0  0  0  0  0  0  0  0  0  0
   45.7450   28.8020   47.6180 C   0  0  0  0  0  0  0  0  0  0  0  0
   45.5520   27.3820   47.7330 N   0  0  0  0  0  0  0  0  0  0  0  0
   46.6500   26.4820   47.7710 C   0  0  0  0  0  0  0  0  0  0  0  0
   46.5830   25.3350   48.7030 C   0  0  0  0  0  0  0  0  0  0  0  0
   45.2560   24.8890   49.1820 C   0  0  0  0  0  0  0  0  0  0  0  0
   44.2840   26.0480   49.2090 C   0  0  0  0  0  0  0  0  0  0  0  0
   44.3450   26.6250   47.7960 C   0  0  0  0  0  0  0  0  0  0  0  0
   48.4232   33.3841   44.5162 H   0  0  0  0  0  0  0  0  0  0  0  0
   48.2392   34.0397   42.6009 H   0  0  0  0  0  0  0  0  0  0  0  0
   47.2608   32.5555   40.7741 H   0  0  0  0  0  0  0  0  0  0  0  0
   46.2777   31.6955   41.9524 H   0  0  0  0  0  0  0  0  0  0  0  0
   47.8278   29.8315   43.2096 H   0  0  0  0  0  0  0  0  0  0  0  0
   49.1736   30.8850   43.8727 H   0  0  0  0  0  0  0  0  0  0  0  0
   46.2292   31.2008   44.0063 H   0  0  0  0  0  0  0  0  0  0  0  0
   43.1070   36.5144   41.5468 H   0  0  0  0  0  0  0  0  0  0  0  0
   43.3678   34.1733   40.5532 H   0  0  0  0  0  0  0  0  0  0  0  0
   44.0809   38.0948   42.9670 H   0  0  0  0  0  0  0  0  0  0  0  0
   46.7194   33.5274   45.9580 H   0  0  0  0  0  0  0  0  0  0  0  0
   46.1048   32.6101   47.6729 H   0  0  0  0  0  0  0  0  0  0  0  0
   44.7372   31.5320   49.4218 H   0  0  0  0  0  0  0  0  0  0  0  0
   44.5200   29.0735   49.3649 H   0  0  0  0  0  0  0  0  0  0  0  0
   46.7705   26.0718   46.7575 H   0  0  0  0  0  0  0  0  0  0  0  0
   47.4867   27.0893   48.1466 H   0  0  0  0  0  0  0  0  0  0  0  0
   47.0499   24.4776   48.1963 H   0  0  0  0  0  0  0  0  0  0  0  0
   47.0884   25.6967   49.6106 H   0  0  0  0  0  0  0  0  0  0  0  0
   44.8712   24.1097   48.5077 H   0  0  0  0  0  0  0  0  0  0  0  0
   45.3620   24.4905   50.2018 H   0  0  0  0  0  0  0  0  0  0  0  0
   43.2677   25.6988   49.4437 H   0  0  0  0  0  0  0  0  0  0  0  0
   44.5386   26.7921   49.9781 H   0  0  0  0  0  0  0  0  0  0  0  0
   43.4765   27.2740   47.6102 H   0  0  0  0  0  0  0  0  0  0  0  0
   44.3270   25.8309   47.0351 H   0  0  0  0  0  0  0  0  0  0  0  0
  1  6  1  0
  1 14  1  0
  2  1  1  0
  3  4  1  0
  3  2  1  0
  4  5  1  0
  5  6  1  0
  6 15  1  0
  7 12  2  0
  7 13  1  0
  8  7  1  0
  9 10  1  0
  9  8  2  0
 10 11  2  0
 11  2  1  0
 11 12  1  0
 15 18  1  0
 16 17  1  0
 17 22  2  0
 18 17  1  0
 18 19  2  0
 19 20  1  0
 21 20  2  0
 22 23  1  0
 22 21  1  0
 23 24  1  0
 23 28  1  0
 24 25  1  0
 25 26  1  0
 26 27  1  0
 28 27  1  0
  1 29  1  1
  2 30  1  6
  3 31  1  0
  3 32  1  0
  5 33  1  0
  5 34  1  0
  6 35  1  6
  8 36  1  0
  9 37  1  0
 13 38  1  0
 14 39  1  0
 19 40  1  0
 20 41  1  0
 21 42  1  0
 24 43  1  0
 24 44  1  0
 25 45  1  0
 25 46  1  0
 26 47  1  0
 26 48  1  0
 27 49  1  0
 27 50  1  0
 28 51  1  0
 28 52  1  0
M  ISO  8  29  13  30  13  31  13  32  13  33  13  34  13  35  13  36  14
M  ISO  8  37  14  38   3  39   3  40  14  41  14  42  14  43  13  44  13
M  ISO  8  45  13  46  13  47  13  48  13  49  13  50  13  51  13  52  13
M  END
>  <minimizedAffinity>  (1) 
-5.64063597

>  <minimizedRMSD>  (1) 
1.17711794

$$$$
