
     RDKit          3D

 49 52  0  0  1  0  0  0  0  0999 V2000
   47.4600   32.9810   44.4020 C   0  0  2  0  0  0  0  0  0  0  0  0
   47.3740   33.3800   42.9710 C   0  0  1  0  0  0  0  0  0  0  0  0
   47.3230   32.1720   42.0350 C   0  0  0  0  0  0  0  0  0  0  0  0
   48.4500   31.4220   42.3860 O   0  0  0  0  0  0  0  0  0  0  0  0
   48.2740   30.7830   43.5980 C   0  0  0  0  0  0  0  0  0  0  0  0
   47.2960   31.4540   44.5110 C   0  0  1  0  0  0  0  0  0  0  0  0
   45.0270   36.1850   42.8380 C   0  0  0  0  0  0  0  0  0  0  0  0
   44.0000   35.7360   41.9520 C   0  0  0  0  0  0  0  0  0  0  0  0
   44.1770   34.4340   41.4220 C   0  0  0  0  0  0  0  0  0  0  0  0
   45.2680   33.7170   41.7710 N   0  0  0  0  0  0  0  0  0  0  0  0
   46.2040   34.2010   42.6160 C   0  0  0  0  0  0  0  0  0  0  0  0
   46.0820   35.4340   43.1480 N   0  0  0  0  0  0  0  0  0  0  0  0
   44.8710   37.4330   43.3570 O   0  0  0  0  0  0  0  0  0  0  0  0
   46.4910   33.5780   45.2110 O   0  0  0  0  0  0  0  0  0  0  0  0
   47.4670   31.1310   45.8370 O   0  0  0  0  0  0  0  0  0  0  0  0
   46.4020   28.6610   45.6000 F   0  0  0  0  0  0  0  0  0  0  0  0
   46.1840   29.4970   46.6350 C   0  0  0  0  0  0  0  0  0  0  0  0
   46.6850   30.7640   46.8390 C   0  0  0  0  0  0  0  0  0  0  0  0
   46.2840   31.3760   48.0150 C   0  0  0  0  0  0  0  0  0  0  0  0
   45.4450   30.8240   48.9650 C   0  0  0  0  0  0  0  0  0  0  0  0
   44.9790   29.5680   48.7100 C   0  0  0  0  0  0  0  0  0  0  0  0
   45.3300   28.8850   47.5590 C   0  0  0  0  0  0  0  0  0  0  0  0
   44.7560   27.5960   47.4580 N   0  0  0  0  0  0  0  0  0  0  0  0
   43.9570   27.1830   46.3200 C   0  0  0  0  0  0  0  0  0  0  0  0
   42.8740   26.3580   46.9760 C   0  0  0  0  0  0  0  0  0  0  0  0
   43.6080   25.6490   48.0730 C   0  0  0  0  0  0  0  0  0  0  0  0
   44.8130   26.4770   48.3690 C   0  0  0  0  0  0  0  0  0  0  0  0
   48.4436   33.3204   44.7590 H   0  0  0  0  0  0  0  0  0  0  0  0
   48.2898   33.9755   42.8420 H   0  0  0  0  0  0  0  0  0  0  0  0
   47.3774   32.4900   40.9834 H   0  0  0  0  0  0  0  0  0  0  0  0
   46.3880   31.6008   42.1327 H   0  0  0  0  0  0  0  0  0  0  0  0
   47.9163   29.7617   43.4004 H   0  0  0  0  0  0  0  0  0  0  0  0
   49.2477   30.8031   44.1094 H   0  0  0  0  0  0  0  0  0  0  0  0
   46.3019   31.1070   44.1925 H   0  0  0  0  0  0  0  0  0  0  0  0
   43.1300   36.3595   41.6983 H   0  0  0  0  0  0  0  0  0  0  0  0
   43.4324   34.0102   40.7321 H   0  0  0  0  0  0  0  0  0  0  0  0
   44.0791   37.9749   43.1135 H   0  0  0  0  0  0  0  0  0  0  0  0
   46.7224   33.4354   46.1630 H   0  0  0  0  0  0  0  0  0  0  0  0
   46.6662   32.3889   48.2099 H   0  0  0  0  0  0  0  0  0  0  0  0
   45.1677   31.3695   49.8791 H   0  0  0  0  0  0  0  0  0  0  0  0
   44.3081   29.0864   49.4366 H   0  0  0  0  0  0  0  0  0  0  0  0
   44.5477   26.5789   45.6156 H   0  0  0  0  0  0  0  0  0  0  0  0
   43.5727   28.0220   45.7213 H   0  0  0  0  0  0  0  0  0  0  0  0
   42.0794   27.0006   47.3831 H   0  0  0  0  0  0  0  0  0  0  0  0
   42.3690   25.6729   46.2791 H   0  0  0  0  0  0  0  0  0  0  0  0
   42.9721   25.5676   48.9669 H   0  0  0  0  0  0  0  0  0  0  0  0
   43.8865   24.6276   47.7745 H   0  0  0  0  0  0  0  0  0  0  0  0
   45.7297   25.8928   48.2009 H   0  0  0  0  0  0  0  0  0  0  0  0
   44.8278   26.8094   49.4175 H   0  0  0  0  0  0  0  0  0  0  0  0
  1  6  1  0
  1 14  1  0
  2  1  1  0
  3  4  1  0
  3  2  1  0
  4  5  1  0
  5  6  1  0
  6 15  1  0
  7 12  2  0
  7 13  1  0
  8  7  1  0
  9 10  1  0
  9  8  2  0
 10 11  2  0
 11  2  1  0
 11 12  1  0
 15 18  1  0
 16 17  1  0
 17 18  2  0
 17 22  1  0
 18 19  1  0
 19 20  2  0
 21 20  1  0
 22 21  2  0
 23 22  1  0
 23 27  1  0
 24 25  1  0
 24 23  1  0
 25 26  1  0
 26 27  1  0
  1 28  1  1
  2 29  1  6
  3 30  1  0
  3 31  1  0
  5 32  1  0
  5 33  1  0
  6 34  1  6
  8 35  1  0
  9 36  1  0
 13 37  1  0
 14 38  1  0
 19 39  1  0
 20 40  1  0
 21 41  1  0
 24 42  1  0
 24 43  1  0
 25 44  1  0
 25 45  1  0
 26 46  1  0
 26 47  1  0
 27 48  1  0
 27 49  1  0
M  ISO  8  28  13  29  13  30  13  31  13  32  13  33  13  34  13  35  14
M  ISO  8  36  14  37   3  38   3  39  14  40  14  41  14  42  13  43  13
M  ISO  6  44  13  45  13  46  13  47  13  48  13  49  13
M  END
>  <minimizedAffinity>  (1) 
-5.59926414

>  <minimizedRMSD>  (1) 
0.947151244

$$$$
