
     RDKit          3D

 41 43  0  0  1  0  0  0  0  0999 V2000
   47.4340   33.1310   44.3170 C   0  0  2  0  0  0  0  0  0  0  0  0
   47.3230   33.4500   42.8690 C   0  0  1  0  0  0  0  0  0  0  0  0
   47.2030   32.1890   42.0120 C   0  0  0  0  0  0  0  0  0  0  0  0
   48.3140   31.4260   42.3720 O   0  0  0  0  0  0  0  0  0  0  0  0
   48.1760   30.8780   43.6310 C   0  0  0  0  0  0  0  0  0  0  0  0
   47.2260   31.6200   44.5220 C   0  0  1  0  0  0  0  0  0  0  0  0
   45.0220   36.2890   42.6820 C   0  0  0  0  0  0  0  0  0  0  0  0
   43.9880   35.8430   41.8020 C   0  0  0  0  0  0  0  0  0  0  0  0
   44.1420   34.5250   41.2930 C   0  0  0  0  0  0  0  0  0  0  0  0
   45.2210   33.8000   41.6600 N   0  0  0  0  0  0  0  0  0  0  0  0
   46.1620   34.2820   42.4950 C   0  0  0  0  0  0  0  0  0  0  0  0
   46.0620   35.5310   43.0070 N   0  0  0  0  0  0  0  0  0  0  0  0
   44.8750   37.5480   43.1680 O   0  0  0  0  0  0  0  0  0  0  0  0
   46.5020   33.8050   45.1160 O   0  0  0  0  0  0  0  0  0  0  0  0
   47.4260   31.3750   45.8620 O   0  0  0  0  0  0  0  0  0  0  0  0
   46.8450   28.7580   46.2060 F   0  0  0  0  0  0  0  0  0  0  0  0
   46.4100   29.7540   47.0030 C   0  0  0  0  0  0  0  0  0  0  0  0
   46.6600   31.1090   46.9070 C   0  0  0  0  0  0  0  0  0  0  0  0
   46.0740   31.8840   47.8950 C   0  0  0  0  0  0  0  0  0  0  0  0
   45.2910   31.4220   48.9290 C   0  0  0  0  0  0  0  0  0  0  0  0
   45.0790   30.0700   48.9740 C   0  0  0  0  0  0  0  0  0  0  0  0
   45.6230   29.2190   48.0300 C   0  0  0  0  0  0  0  0  0  0  0  0
   44.3850   27.0550   47.4740 C   0  0  0  0  0  0  0  0  0  0  0  0
   43.8580   27.7360   46.5450 O   0  0  0  0  0  0  0  0  0  0  0  0
   45.3010   27.8600   48.2300 N   0  0  0  0  0  0  0  0  0  0  0  0
   48.4373   33.4588   44.6266 H   0  0  0  0  0  0  0  0  0  0  0  0
   48.2516   34.0089   42.6807 H   0  0  0  0  0  0  0  0  0  0  0  0
   47.2321   32.4402   40.9415 H   0  0  0  0  0  0  0  0  0  0  0  0
   46.2544   31.6565   42.1749 H   0  0  0  0  0  0  0  0  0  0  0  0
   47.8110   29.8462   43.5203 H   0  0  0  0  0  0  0  0  0  0  0  0
   49.1652   30.9304   44.1093 H   0  0  0  0  0  0  0  0  0  0  0  0
   46.2161   31.2788   44.2506 H   0  0  0  0  0  0  0  0  0  0  0  0
   43.1298   36.4777   41.5362 H   0  0  0  0  0  0  0  0  0  0  0  0
   43.3922   34.1008   40.6090 H   0  0  0  0  0  0  0  0  0  0  0  0
   44.0886   38.0903   42.9080 H   0  0  0  0  0  0  0  0  0  0  0  0
   46.7139   33.6518   46.0708 H   0  0  0  0  0  0  0  0  0  0  0  0
   46.2507   32.9687   47.8489 H   0  0  0  0  0  0  0  0  0  0  0  0
   44.8593   32.1020   49.6781 H   0  0  0  0  0  0  0  0  0  0  0  0
   44.4605   29.6506   49.7812 H   0  0  0  0  0  0  0  0  0  0  0  0
   44.1704   25.9947   47.6733 H   0  0  0  0  0  0  0  0  0  0  0  0
   45.7803   27.3901   49.0113 H   0  0  0  0  0  0  0  0  0  0  0  0
  1  6  1  0
  1 14  1  0
  2  1  1  0
  3  4  1  0
  3  2  1  0
  4  5  1  0
  5  6  1  0
  6 15  1  0
  7 12  2  0
  7 13  1  0
  8  7  1  0
  9 10  1  0
  9  8  2  0
 10 11  2  0
 11  2  1  0
 11 12  1  0
 15 18  1  0
 16 17  1  0
 17 22  2  0
 18 17  1  0
 18 19  2  0
 19 20  1  0
 20 21  2  0
 22 25  1  0
 22 21  1  0
 23 25  1  0
 24 23  2  0
  1 26  1  1
  2 27  1  6
  3 28  1  0
  3 29  1  0
  5 30  1  0
  5 31  1  0
  6 32  1  6
  8 33  1  0
  9 34  1  0
 13 35  1  0
 14 36  1  0
 19 37  1  0
 20 38  1  0
 21 39  1  0
 23 40  1  0
 25 41  1  0
M  ISO  8  26  13  27  13  28  13  29  13  30  13  31  13  32  13  33  14
M  ISO  7  34  14  35   3  36   3  37  14  38  14  39  14  40   6
M  END
>  <minimizedAffinity>  (1) 
-5.32527018

>  <minimizedRMSD>  (1) 
1.04728377

$$$$
