
     RDKit          3D

 38 40  0  0  1  0  0  0  0  0999 V2000
   47.4610   33.0990   44.3460 C   0  0  2  0  0  0  0  0  0  0  0  0
   47.3200   33.4320   42.9050 C   0  0  1  0  0  0  0  0  0  0  0  0
   47.1930   32.1780   42.0390 C   0  0  0  0  0  0  0  0  0  0  0  0
   48.3130   31.4160   42.3730 O   0  0  0  0  0  0  0  0  0  0  0  0
   48.1930   30.8500   43.6250 C   0  0  0  0  0  0  0  0  0  0  0  0
   47.2620   31.5840   44.5410 C   0  0  1  0  0  0  0  0  0  0  0  0
   45.0140   36.2730   42.7520 C   0  0  0  0  0  0  0  0  0  0  0  0
   43.9580   35.8150   41.9140 C   0  0  0  0  0  0  0  0  0  0  0  0
   44.0960   34.4960   41.4210 C   0  0  0  0  0  0  0  0  0  0  0  0
   45.1870   33.7750   41.7640 N   0  0  0  0  0  0  0  0  0  0  0  0
   46.1540   34.2650   42.5620 C   0  0  0  0  0  0  0  0  0  0  0  0
   46.0620   35.5160   43.0540 N   0  0  0  0  0  0  0  0  0  0  0  0
   44.8930   37.5400   43.2330 O   0  0  0  0  0  0  0  0  0  0  0  0
   46.5430   33.7610   45.1690 O   0  0  0  0  0  0  0  0  0  0  0  0
   47.4860   31.3240   45.8740 O   0  0  0  0  0  0  0  0  0  0  0  0
   46.4890   28.8110   45.9410 F   0  0  0  0  0  0  0  0  0  0  0  0
   46.2670   29.7500   46.8810 C   0  0  0  0  0  0  0  0  0  0  0  0
   46.7390   31.0500   46.9280 C   0  0  0  0  0  0  0  0  0  0  0  0
   46.3420   31.7740   48.0410 C   0  0  0  0  0  0  0  0  0  0  0  0
   45.5440   31.3120   49.0650 C   0  0  0  0  0  0  0  0  0  0  0  0
   45.1070   30.0220   48.9690 C   0  0  0  0  0  0  0  0  0  0  0  0
   45.4570   29.2310   47.8910 C   0  0  0  0  0  0  0  0  0  0  0  0
   44.7880   27.5750   47.9420 S   0  0  0  0  0  0  0  0  0  0  0  0
   48.4694   33.4270   44.6384 H   0  0  0  0  0  0  0  0  0  0  0  0
   48.2414   33.9980   42.7031 H   0  0  0  0  0  0  0  0  0  0  0  0
   47.2034   32.4392   40.9705 H   0  0  0  0  0  0  0  0  0  0  0  0
   46.2499   31.6394   42.2135 H   0  0  0  0  0  0  0  0  0  0  0  0
   47.8206   29.8219   43.5052 H   0  0  0  0  0  0  0  0  0  0  0  0
   49.1901   30.8892   44.0879 H   0  0  0  0  0  0  0  0  0  0  0  0
   46.2472   31.2455   44.2850 H   0  0  0  0  0  0  0  0  0  0  0  0
   43.0914   36.4455   41.6660 H   0  0  0  0  0  0  0  0  0  0  0  0
   43.3252   34.0626   40.7668 H   0  0  0  0  0  0  0  0  0  0  0  0
   44.1027   38.0866   42.9947 H   0  0  0  0  0  0  0  0  0  0  0  0
   46.7718   33.5960   46.1180 H   0  0  0  0  0  0  0  0  0  0  0  0
   46.6964   32.8128   48.1137 H   0  0  0  0  0  0  0  0  0  0  0  0
   45.2723   31.9512   49.9180 H   0  0  0  0  0  0  0  0  0  0  0  0
   44.4670   29.6062   49.7612 H   0  0  0  0  0  0  0  0  0  0  0  0
   44.6308   27.1859   49.2462 H   0  0  0  0  0  0  0  0  0  0  0  0
  1  6  1  0
  1 14  1  0
  2  1  1  0
  3  4  1  0
  3  2  1  0
  4  5  1  0
  5  6  1  0
  6 15  1  0
  7 12  2  0
  7 13  1  0
  8  7  1  0
  9 10  1  0
  9  8  2  0
 10 11  2  0
 11  2  1  0
 11 12  1  0
 15 18  1  0
 16 17  1  0
 17 18  2  0
 17 22  1  0
 18 19  1  0
 19 20  2  0
 21 20  1  0
 22 23  1  0
 22 21  2  0
  1 24  1  1
  2 25  1  6
  3 26  1  0
  3 27  1  0
  5 28  1  0
  5 29  1  0
  6 30  1  6
  8 31  1  0
  9 32  1  0
 13 33  1  0
 14 34  1  0
 19 35  1  0
 20 36  1  0
 21 37  1  0
 23 38  1  0
M  ISO  8  24  13  25  13  26  13  27  13  28  13  29  13  30  13  31  14
M  ISO  7  32  14  33   3  34   3  35  14  36  14  37  14  38  11
M  END
>  <minimizedAffinity>  (1) 
-5.15697145

>  <minimizedRMSD>  (1) 
0.446171224

$$$$
