
     RDKit          3D

 36 38  0  0  0  0  0  0  0  0999 V2000
   45.7010   31.6900   47.1730 C   0  0  0  0  0  0  0  0  0  0  0  0
   45.7270   32.1610   48.4850 C   0  0  0  0  0  0  0  0  0  0  0  0
   45.4390   31.3540   49.5760 C   0  0  0  0  0  0  0  0  0  0  0  0
   45.1200   30.0470   49.3260 C   0  0  0  0  0  0  0  0  0  0  0  0
   45.0940   29.5750   48.0220 C   0  0  0  0  0  0  0  0  0  0  0  0
   45.3780   30.3870   47.0020 N   0  0  0  0  0  0  0  0  0  0  0  0
   44.8490   36.4540   43.5630 C   0  0  0  0  0  0  0  0  0  0  0  0
   45.8160   36.1420   42.6000 C   0  0  0  0  0  0  0  0  0  0  0  0
   46.5130   34.9440   42.7450 C   0  0  0  0  0  0  0  0  0  0  0  0
   46.2190   34.1360   43.8160 N   0  0  0  0  0  0  0  0  0  0  0  0
   45.2710   34.4850   44.7230 C   0  0  0  0  0  0  0  0  0  0  0  0
   44.5860   35.6400   44.6000 N   0  0  0  0  0  0  0  0  0  0  0  0
   46.0000   32.5790   46.0440 C   0  0  0  0  0  0  0  0  0  0  0  0
   47.0420   32.4100   45.3800 O   0  0  0  0  0  0  0  0  0  0  0  0
   45.0170   33.6060   45.8040 N   0  0  0  0  0  0  0  0  0  0  0  0
   44.3840   27.7730   46.5040 C   0  0  0  0  0  0  0  0  0  0  0  0
   44.7550   28.1850   47.7640 C   0  0  0  0  0  0  0  0  0  0  0  0
   44.7800   27.2100   48.7380 C   0  0  0  0  0  0  0  0  0  0  0  0
   44.4700   25.8890   48.5510 C   0  0  0  0  0  0  0  0  0  0  0  0
   44.0980   25.4650   47.2930 C   0  0  0  0  0  0  0  0  0  0  0  0
   44.0640   26.4230   46.3020 C   0  0  0  0  0  0  0  0  0  0  0  0
   44.2910   28.8430   45.1500 S   0  0  0  0  0  0  0  0  0  0  0  0
   42.9630   28.8370   44.4530 O   0  0  0  0  0  0  0  0  0  0  0  0
   45.2920   28.4130   44.0840 O   0  0  0  0  0  0  0  0  0  0  0  0
   45.9864   33.2152   48.6622 H   0  0  0  0  0  0  0  0  0  0  0  0
   45.4660   31.7494   50.6021 H   0  0  0  0  0  0  0  0  0  0  0  0
   44.8839   29.3699   50.1601 H   0  0  0  0  0  0  0  0  0  0  0  0
   44.2868   37.3947   43.4682 H   0  0  0  0  0  0  0  0  0  0  0  0
   46.0188   36.8195   41.7574 H   0  0  0  0  0  0  0  0  0  0  0  0
   47.2832   34.6514   42.0162 H   0  0  0  0  0  0  0  0  0  0  0  0
   44.1737   33.6958   46.3885 H   0  0  0  0  0  0  0  0  0  0  0  0
   45.0740   27.5191   49.7519 H   0  0  0  0  0  0  0  0  0  0  0  0
   44.5170   25.1789   49.3898 H   0  0  0  0  0  0  0  0  0  0  0  0
   43.8411   24.4148   47.0900 H   0  0  0  0  0  0  0  0  0  0  0  0
   43.7675   26.1087   45.2904 H   0  0  0  0  0  0  0  0  0  0  0  0
   44.5312   30.0863   45.6728 H   0  0  0  0  0  0  0  0  0  0  0  0
  1  2  2  0
  2  3  1  0
  4  3  2  0
  5  4  1  0
  6  1  1  0
  6  5  2  0
  7 12  2  0
  8  9  2  0
  8  7  1  0
  9 10  1  0
 10 11  2  0
 11 15  1  0
 12 11  1  0
 13  1  1  0
 14 13  2  0
 15 13  1  0
 16 17  2  0
 17  5  1  0
 17 18  1  0
 19 18  2  0
 20 19  1  0
 21 16  1  0
 21 20  2  0
 22 16  1  0
 23 22  2  0
 24 22  2  0
  2 25  1  0
  3 26  1  0
  4 27  1  0
  7 28  1  0
  8 29  1  0
  9 30  1  0
 15 31  1  0
 18 32  1  0
 19 33  1  0
 20 34  1  0
 21 35  1  0
 22 36  1  0
M  ISO  8  25  14  26  14  27  14  28  14  29  14  30  14  32  14  33  14
M  ISO  3  34  14  35  14  36  11
M  END
>  <minimizedAffinity>  (1) 
-5.64272022

>  <minimizedRMSD>  (1) 
0.495483696

$$$$
