
     RDKit          3D

 25 26  0  0  0  0  0  0  0  0999 V2000
   44.5780   36.0910   44.2280 C   0  0  0  0  0  0  0  0  0  0  0  0
   45.3920   35.9420   43.0830 C   0  0  0  0  0  0  0  0  0  0  0  0
   46.2790   34.8740   43.1220 C   0  0  0  0  0  0  0  0  0  0  0  0
   46.2880   34.0900   44.2200 N   0  0  0  0  0  0  0  0  0  0  0  0
   45.5040   34.2540   45.2910 C   0  0  0  0  0  0  0  0  0  0  0  0
   44.6340   35.2780   45.2870 N   0  0  0  0  0  0  0  0  0  0  0  0
   47.1290   34.7050   41.9470 C   0  0  0  0  0  0  0  0  0  0  0  0
   47.9600   33.5930   42.1210 F   0  0  0  0  0  0  0  0  0  0  0  0
   47.9830   35.8040   41.9190 F   0  0  0  0  0  0  0  0  0  0  0  0
   46.4430   34.5380   40.7870 F   0  0  0  0  0  0  0  0  0  0  0  0
   45.5490   33.3880   46.4560 C   0  0  0  0  0  0  0  0  0  0  0  0
   44.8130   33.5760   47.4480 O   0  0  0  0  0  0  0  0  0  0  0  0
   46.4250   32.2380   46.6000 C   0  0  0  0  0  0  0  0  0  0  0  0
   47.2620   32.1430   47.7180 C   0  0  0  0  0  0  0  0  0  0  0  0
   48.1380   31.0930   47.9560 C   0  0  0  0  0  0  0  0  0  0  0  0
   48.2060   30.0730   47.0530 C   0  0  0  0  0  0  0  0  0  0  0  0
   47.3980   30.1370   45.9450 C   0  0  0  0  0  0  0  0  0  0  0  0
   46.5360   31.1960   45.7370 C   0  0  0  0  0  0  0  0  0  0  0  0
   43.8581   36.9225   44.2489 H   0  0  0  0  0  0  0  0  0  0  0  0
   45.3278   36.6234   42.2218 H   0  0  0  0  0  0  0  0  0  0  0  0
   47.2228   32.9557   48.4582 H   0  0  0  0  0  0  0  0  0  0  0  0
   48.7672   31.0836   48.8582 H   0  0  0  0  0  0  0  0  0  0  0  0
   48.8882   29.2241   47.2080 H   0  0  0  0  0  0  0  0  0  0  0  0
   47.4381   29.3247   45.2044 H   0  0  0  0  0  0  0  0  0  0  0  0
   45.9115   31.1950   44.8315 H   0  0  0  0  0  0  0  0  0  0  0  0
  1  6  2  0
  2  3  2  0
  2  1  1  0
  3  4  1  0
  4  5  2  0
  5 11  1  0
  6  5  1  0
  7  8  1  0
  7  3  1  0
  9  7  1  0
 10  7  1  0
 11 13  1  0
 11 12  2  0
 13 14  2  0
 14 15  1  0
 16 15  2  0
 17 16  1  0
 18 17  2  0
 18 13  1  0
  1 19  1  0
  2 20  1  0
 14 21  1  0
 15 22  1  0
 16 23  1  0
 17 24  1  0
 18 25  1  0
M  ISO  7  19  14  20  14  21  14  22  14  23  14  24  14  25  14
M  END
>  <minimizedAffinity>  (1) 
-5.38601828

>  <minimizedRMSD>  (1) 
0.364460915

$$$$
