
     RDKit          3D

 22 23  0  0  0  0  0  0  0  0999 V2000
   44.5920   36.1250   44.2510 C   0  0  0  0  0  0  0  0  0  0  0  0
   45.4130   35.9640   43.1160 C   0  0  0  0  0  0  0  0  0  0  0  0
   46.2790   34.8570   43.1270 C   0  0  0  0  0  0  0  0  0  0  0  0
   46.2640   34.0440   44.2030 N   0  0  0  0  0  0  0  0  0  0  0  0
   45.4650   34.2290   45.2730 C   0  0  0  0  0  0  0  0  0  0  0  0
   44.6250   35.2760   45.2920 N   0  0  0  0  0  0  0  0  0  0  0  0
   47.1210   34.7080   41.9430 C   0  0  0  0  0  0  0  0  0  0  0  0
   47.9620   33.6030   42.1130 F   0  0  0  0  0  0  0  0  0  0  0  0
   47.9650   35.8160   41.9170 F   0  0  0  0  0  0  0  0  0  0  0  0
   46.4340   34.5590   40.7870 F   0  0  0  0  0  0  0  0  0  0  0  0
   45.4760   33.3320   46.4130 C   0  0  0  0  0  0  0  0  0  0  0  0
   44.8970   33.5930   47.4810 O   0  0  0  0  0  0  0  0  0  0  0  0
   46.1900   32.0540   46.3400 C   0  0  0  0  0  0  0  0  0  0  0  0
   47.2840   31.7430   47.1550 C   0  0  0  0  0  0  0  0  0  0  0  0
   47.7130   30.4560   46.8200 C   0  0  0  0  0  0  0  0  0  0  0  0
   46.8860   30.0500   45.8430 N   0  0  0  0  0  0  0  0  0  0  0  0
   45.9970   30.9800   45.5630 N   0  0  0  0  0  0  0  0  0  0  0  0
   43.8982   36.9779   44.2856 H   0  0  0  0  0  0  0  0  0  0  0  0
   45.3777   36.6654   42.2694 H   0  0  0  0  0  0  0  0  0  0  0  0
   47.7271   32.3950   47.9222 H   0  0  0  0  0  0  0  0  0  0  0  0
   48.5496   29.8951   47.2622 H   0  0  0  0  0  0  0  0  0  0  0  0
   46.9399   29.1339   45.3753 H   0  0  0  0  0  0  0  0  0  0  0  0
  1  6  2  0
  2  3  2  0
  2  1  1  0
  3  4  1  0
  4  5  2  0
  5  6  1  0
  5 11  1  0
  7  8  1  0
  7  3  1  0
  9  7  1  0
 10  7  1  0
 11 12  2  0
 13 11  1  0
 13 14  1  0
 15 14  2  0
 16 15  1  0
 17 16  1  0
 17 13  2  0
  1 18  1  0
  2 19  1  0
 14 20  1  0
 15 21  1  0
 16 22  1  0
M  ISO  5  18  14  19  14  20  14  21  14  22   9
M  END
>  <minimizedAffinity>  (1) 
-4.90371799

>  <minimizedRMSD>  (1) 
0.621138632

$$$$
