
     RDKit          3D

 21 22  0  0  0  0  0  0  0  0999 V2000
   44.5880   36.0550   44.4620 C   0  0  0  0  0  0  0  0  0  0  0  0
   45.3670   35.9310   43.2880 C   0  0  0  0  0  0  0  0  0  0  0  0
   46.2190   34.8200   43.2360 C   0  0  0  0  0  0  0  0  0  0  0  0
   46.2410   33.9560   44.2890 N   0  0  0  0  0  0  0  0  0  0  0  0
   45.4710   34.1310   45.3820 C   0  0  0  0  0  0  0  0  0  0  0  0
   44.6450   35.1810   45.4660 N   0  0  0  0  0  0  0  0  0  0  0  0
   47.0200   34.6960   42.0260 C   0  0  0  0  0  0  0  0  0  0  0  0
   47.9000   33.6150   42.1480 F   0  0  0  0  0  0  0  0  0  0  0  0
   47.8520   35.8260   41.9950 F   0  0  0  0  0  0  0  0  0  0  0  0
   46.3170   34.5680   40.8870 F   0  0  0  0  0  0  0  0  0  0  0  0
   45.5300   33.1690   46.4900 C   0  0  0  0  0  0  0  0  0  0  0  0
   44.9430   33.4250   47.5790 O   0  0  0  0  0  0  0  0  0  0  0  0
   46.2650   31.8890   46.3730 C   0  0  0  0  0  0  0  0  0  0  0  0
   47.3860   31.7180   47.2140 C   0  0  0  0  0  0  0  0  0  0  0  0
   47.9210   30.0290   46.6950 S   0  0  0  0  0  0  0  0  0  0  0  0
   46.5390   29.8690   45.4460 C   0  0  0  0  0  0  0  0  0  0  0  0
   45.8790   30.9440   45.5100 N   0  0  0  0  0  0  0  0  0  0  0  0
   43.9040   36.9120   44.5501 H   0  0  0  0  0  0  0  0  0  0  0  0
   45.3076   36.6610   42.4673 H   0  0  0  0  0  0  0  0  0  0  0  0
   47.8174   32.3971   47.9642 H   0  0  0  0  0  0  0  0  0  0  0  0
   46.3405   29.0106   44.7874 H   0  0  0  0  0  0  0  0  0  0  0  0
  1  6  2  0
  2  1  1  0
  3  2  2  0
  3  4  1  0
  4  5  2  0
  5  6  1  0
  5 11  1  0
  7  8  1  0
  7  3  1  0
  9  7  1  0
 10  7  1  0
 11 12  2  0
 13 11  1  0
 13 14  2  0
 15 14  1  0
 16 17  2  0
 16 15  1  0
 17 13  1  0
  1 18  1  0
  2 19  1  0
 14 20  1  0
 16 21  1  0
M  ISO  4  18  14  19  14  20  14  21  14
M  END
>  <minimizedAffinity>  (1) 
-4.84531879

>  <minimizedRMSD>  (1) 
0.747802317

$$$$
