
     RDKit          3D

 17 17  0  0  0  0  0  0  0  0999 V2000
   44.5470   35.9380   44.5440 C   0  0  0  0  0  0  0  0  0  0  0  0
   45.2600   35.8330   43.3220 C   0  0  0  0  0  0  0  0  0  0  0  0
   46.1710   34.7880   43.2110 C   0  0  0  0  0  0  0  0  0  0  0  0
   46.3070   33.9600   44.2670 N   0  0  0  0  0  0  0  0  0  0  0  0
   45.6160   34.0830   45.4140 C   0  0  0  0  0  0  0  0  0  0  0  0
   44.7260   35.0890   45.5450 N   0  0  0  0  0  0  0  0  0  0  0  0
   45.8240   33.1510   46.5210 C   0  0  0  0  0  0  0  0  0  0  0  0
   45.0320   33.1340   47.5080 O   0  0  0  0  0  0  0  0  0  0  0  0
   46.9340   32.2550   46.4790 N   0  0  0  0  0  0  0  0  0  0  0  0
   46.8830   34.7110   41.9460 C   0  0  0  0  0  0  0  0  0  0  0  0
   47.6760   33.5570   41.9350 F   0  0  0  0  0  0  0  0  0  0  0  0
   47.7850   35.7620   41.9270 F   0  0  0  0  0  0  0  0  0  0  0  0
   46.0700   34.6900   40.8480 F   0  0  0  0  0  0  0  0  0  0  0  0
   43.8192   36.7539   44.6647 H   0  0  0  0  0  0  0  0  0  0  0  0
   45.0996   36.5457   42.4996 H   0  0  0  0  0  0  0  0  0  0  0  0
   47.0915   31.5935   47.2527 H   0  0  0  0  0  0  0  0  0  0  0  0
   47.5776   32.2698   45.6750 H   0  0  0  0  0  0  0  0  0  0  0  0
  1  6  2  0
  2  1  1  0
  3  2  2  0
  3  4  1  0
  4  5  2  0
  5  6  1  0
  5  7  1  0
  7  8  2  0
  9  7  1  0
 10  3  1  0
 11 10  1  0
 12 10  1  0
 13 10  1  0
  1 14  1  0
  2 15  1  0
  9 16  1  0
  9 17  1  0
M  ISO  2  14  14  15  14
M  END
>  <minimizedAffinity>  (1) 
-4.53773355

>  <minimizedRMSD>  (1) 
0.132373184

$$$$
