
     RDKit          3D

 37 39  0  0  0  0  0  0  0  0999 V2000
   45.6520   31.6220   47.1490 C   0  0  0  0  0  0  0  0  0  0  0  0
   45.5810   32.0580   48.4710 C   0  0  0  0  0  0  0  0  0  0  0  0
   45.3410   31.2330   49.5390 C   0  0  0  0  0  0  0  0  0  0  0  0
   45.1620   29.9010   49.2780 C   0  0  0  0  0  0  0  0  0  0  0  0
   45.2300   29.4450   47.9570 C   0  0  0  0  0  0  0  0  0  0  0  0
   45.4690   30.3110   46.9630 N   0  0  0  0  0  0  0  0  0  0  0  0
   44.7620   36.6010   43.8350 C   0  0  0  0  0  0  0  0  0  0  0  0
   45.6630   36.3010   42.7910 C   0  0  0  0  0  0  0  0  0  0  0  0
   46.3180   35.0630   42.8370 C   0  0  0  0  0  0  0  0  0  0  0  0
   46.0540   34.2140   43.8770 N   0  0  0  0  0  0  0  0  0  0  0  0
   45.1860   34.5450   44.8490 C   0  0  0  0  0  0  0  0  0  0  0  0
   44.5410   35.7350   44.8270 N   0  0  0  0  0  0  0  0  0  0  0  0
   45.9120   32.5600   46.0540 C   0  0  0  0  0  0  0  0  0  0  0  0
   46.9220   32.3980   45.3320 O   0  0  0  0  0  0  0  0  0  0  0  0
   44.9550   33.6260   45.8990 N   0  0  0  0  0  0  0  0  0  0  0  0
   45.0260   27.9860   47.7540 C   0  0  0  0  0  0  0  0  0  0  0  0
   44.1410   27.7340   46.5740 C   0  0  0  0  0  0  0  0  0  0  0  0
   43.4320   26.4220   46.5860 C   0  0  0  0  0  0  0  0  0  0  0  0
   43.1770   25.9010   47.8290 O   0  0  0  0  0  0  0  0  0  0  0  0
   44.2410   25.9170   48.7040 C   0  0  0  0  0  0  0  0  0  0  0  0
   44.4960   27.3860   49.0330 C   0  0  0  0  0  0  0  0  0  0  0  0
   45.7265   33.1301   48.6694 H   0  0  0  0  0  0  0  0  0  0  0  0
   45.2941   31.6257   50.5654 H   0  0  0  0  0  0  0  0  0  0  0  0
   44.9665   29.1958   50.0993 H   0  0  0  0  0  0  0  0  0  0  0  0
   44.2325   37.5652   43.8314 H   0  0  0  0  0  0  0  0  0  0  0  0
   45.8443   37.0124   41.9718 H   0  0  0  0  0  0  0  0  0  0  0  0
   47.0323   34.7786   42.0503 H   0  0  0  0  0  0  0  0  0  0  0  0
   44.1408   33.7146   46.5236 H   0  0  0  0  0  0  0  0  0  0  0  0
   45.9818   27.4935   47.5219 H   0  0  0  0  0  0  0  0  0  0  0  0
   44.7614   27.7782   45.6667 H   0  0  0  0  0  0  0  0  0  0  0  0
   43.3584   28.5064   46.6065 H   0  0  0  0  0  0  0  0  0  0  0  0
   42.4699   26.5517   46.0688 H   0  0  0  0  0  0  0  0  0  0  0  0
   44.1078   25.7085   46.0918 H   0  0  0  0  0  0  0  0  0  0  0  0
   43.9918   25.3586   49.6184 H   0  0  0  0  0  0  0  0  0  0  0  0
   45.1308   25.4433   48.2637 H   0  0  0  0  0  0  0  0  0  0  0  0
   45.2378   27.4784   49.8399 H   0  0  0  0  0  0  0  0  0  0  0  0
   43.5858   27.8953   49.3824 H   0  0  0  0  0  0  0  0  0  0  0  0
  1  2  2  0
  2  3  1  0
  4  3  2  0
  5  4  1  0
  6  1  1  0
  6  5  2  0
  7 12  2  0
  8  9  2  0
  8  7  1  0
  9 10  1  0
 10 11  2  0
 11 15  1  0
 12 11  1  0
 13  1  1  0
 14 13  2  0
 15 13  1  0
 16  5  1  0
 16 21  1  0
 17 18  1  0
 17 16  1  0
 18 19  1  0
 19 20  1  0
 20 21  1  0
  2 22  1  0
  3 23  1  0
  4 24  1  0
  7 25  1  0
  8 26  1  0
  9 27  1  0
 15 28  1  0
 16 29  1  0
 17 30  1  0
 17 31  1  0
 18 32  1  0
 18 33  1  0
 20 34  1  0
 20 35  1  0
 21 36  1  0
 21 37  1  0
M  ISO  8  22  14  23  14  24  14  25  14  26  14  27  14  29  13  30  13
M  ISO  7  31  13  32  13  33  13  34  13  35  13  36  13  37  13
M  END
>  <minimizedAffinity>  (1) 
-5.6247797

>  <minimizedRMSD>  (1) 
0.552026451

$$$$
