
     RDKit          3D

 41 43  0  0  1  0  0  0  0  0999 V2000
   46.7910   32.1930   47.0060 C   0  0  1  0  0  0  0  0  0  0  0  0
   47.4700   32.0750   48.2450 C   0  0  0  0  0  0  0  0  0  0  0  0
   48.4970   31.0090   48.1840 C   0  0  0  0  0  0  0  0  0  0  0  0
   48.0430   29.8490   47.4280 C   0  0  0  0  0  0  0  0  0  0  0  0
   47.9410   30.2950   45.9970 C   0  0  0  0  0  0  0  0  0  0  0  0
   46.7590   31.1780   45.9640 C   0  0  1  0  0  0  0  0  0  0  0  0
   45.1250   29.9390   48.4320 Cl  0  0  0  0  0  0  0  0  0  0  0  0
   44.9170   29.5660   46.7770 C   0  0  0  0  0  0  0  0  0  0  0  0
   45.6830   30.1850   45.8550 C   0  0  0  0  0  0  0  0  0  0  0  0
   45.3910   29.7580   44.5510 C   0  0  0  0  0  0  0  0  0  0  0  0
   44.4350   28.8190   44.2400 C   0  0  0  0  0  0  0  0  0  0  0  0
   43.6920   28.2290   45.2260 C   0  0  0  0  0  0  0  0  0  0  0  0
   43.9490   28.6200   46.5210 C   0  0  0  0  0  0  0  0  0  0  0  0
   45.6180   33.0750   46.9820 C   0  0  0  0  0  0  0  0  0  0  0  0
   44.7270   33.1780   47.8450 O   0  0  0  0  0  0  0  0  0  0  0  0
   44.5960   35.7600   44.7030 C   0  0  0  0  0  0  0  0  0  0  0  0
   45.4170   35.5710   43.5600 C   0  0  0  0  0  0  0  0  0  0  0  0
   46.2950   34.4890   43.6180 C   0  0  0  0  0  0  0  0  0  0  0  0
   46.2670   33.7570   44.7380 N   0  0  0  0  0  0  0  0  0  0  0  0
   45.5100   33.9270   45.8020 C   0  0  0  0  0  0  0  0  0  0  0  0
   44.6410   34.9790   45.7640 N   0  0  0  0  0  0  0  0  0  0  0  0
   47.1530   34.2770   42.4500 C   0  0  0  0  0  0  0  0  0  0  0  0
   48.3840   33.7740   42.8380 F   0  0  0  0  0  0  0  0  0  0  0  0
   47.4920   35.5540   42.0190 F   0  0  0  0  0  0  0  0  0  0  0  0
   46.5910   33.5320   41.4760 F   0  0  0  0  0  0  0  0  0  0  0  0
   47.7054   32.6737   46.6282 H   0  0  0  0  0  0  0  0  0  0  0  0
   47.9577   33.0322   48.4813 H   0  0  0  0  0  0  0  0  0  0  0  0
   46.7383   31.8148   49.0241 H   0  0  0  0  0  0  0  0  0  0  0  0
   49.3996   31.4140   47.7031 H   0  0  0  0  0  0  0  0  0  0  0  0
   48.7043   30.6809   49.2133 H   0  0  0  0  0  0  0  0  0  0  0  0
   48.7674   29.0263   47.5203 H   0  0  0  0  0  0  0  0  0  0  0  0
   47.0770   29.4795   47.8025 H   0  0  0  0  0  0  0  0  0  0  0  0
   48.8449   30.8452   45.6967 H   0  0  0  0  0  0  0  0  0  0  0  0
   47.8472   29.4474   45.3022 H   0  0  0  0  0  0  0  0  0  0  0  0
   46.6470   31.8956   45.1379 H   0  0  0  0  0  0  0  0  0  0  0  0
   45.9635   30.2028   43.7237 H   0  0  0  0  0  0  0  0  0  0  0  0
   44.2664   28.5400   43.1894 H   0  0  0  0  0  0  0  0  0  0  0  0
   42.9240   27.4763   44.9945 H   0  0  0  0  0  0  0  0  0  0  0  0
   43.3808   28.1765   47.3519 H   0  0  0  0  0  0  0  0  0  0  0  0
   43.8866   36.6006   44.7031 H   0  0  0  0  0  0  0  0  0  0  0  0
   45.3639   36.2354   42.6849 H   0  0  0  0  0  0  0  0  0  0  0  0
  1  2  1  0
  3  2  1  0
  4  3  1  0
  5  4  1  0
  6  5  1  0
  6  1  1  0
  8  7  1  0
  9  6  1  0
  9  8  2  0
 10  9  1  0
 11 10  2  0
 11 12  1  0
 12 13  2  0
 13  8  1  0
 14  1  1  0
 14 15  2  0
 16 21  2  0
 17 18  2  0
 17 16  1  0
 18 19  1  0
 19 20  2  0
 20 14  1  0
 21 20  1  0
 22 23  1  0
 22 18  1  0
 24 22  1  0
 25 22  1  0
  1 26  1  6
  2 27  1  0
  2 28  1  0
  3 29  1  0
  3 30  1  0
  4 31  1  0
  4 32  1  0
  5 33  1  0
  5 34  1  0
  6 35  1  6
 10 36  1  0
 11 37  1  0
 12 38  1  0
 13 39  1  0
 16 40  1  0
 17 41  1  0
M  ISO  8  26  13  27  13  28  13  29  13  30  13  31  13  32  13  33  13
M  ISO  8  34  13  35  13  36  14  37  14  38  14  39  14  40  14  41  14
M  END
>  <minimizedAffinity>  (1) 
-6.09709311

>  <minimizedRMSD>  (1) 
1.67053533

$$$$
