
     RDKit          3D

 34 35  0  0  1  0  0  0  0  0999 V2000
   45.8690   31.2480   46.3700 C   0  0  2  0  0  0  0  0  0  0  0  0
   45.6060   30.5640   47.6940 C   0  0  0  0  0  0  0  0  0  0  0  0
   44.9310   29.2680   47.3740 C   0  0  0  0  0  0  0  0  0  0  0  0
   44.6310   29.0230   45.9340 C   0  0  0  0  0  0  0  0  0  0  0  0
   45.8980   29.1550   45.1100 C   0  0  0  0  0  0  0  0  0  0  0  0
   46.6540   30.3240   45.4990 C   0  0  2  0  0  0  0  0  0  0  0  0
   46.4540   32.5910   46.5020 C   0  0  0  0  0  0  0  0  0  0  0  0
   47.2710   32.8980   47.4120 O   0  0  0  0  0  0  0  0  0  0  0  0
   44.6700   35.3680   44.9390 C   0  0  0  0  0  0  0  0  0  0  0  0
   45.2540   35.4810   43.6560 C   0  0  0  0  0  0  0  0  0  0  0  0
   46.2830   34.5870   43.3650 C   0  0  0  0  0  0  0  0  0  0  0  0
   46.6000   33.7250   44.3400 N   0  0  0  0  0  0  0  0  0  0  0  0
   46.0650   33.6130   45.5270 C   0  0  0  0  0  0  0  0  0  0  0  0
   45.0610   34.4710   45.8350 N   0  0  0  0  0  0  0  0  0  0  0  0
   46.8590   34.6670   42.0260 C   0  0  0  0  0  0  0  0  0  0  0  0
   47.6410   33.5520   41.7850 F   0  0  0  0  0  0  0  0  0  0  0  0
   47.6770   35.7630   42.0410 F   0  0  0  0  0  0  0  0  0  0  0  0
   45.9060   34.7210   41.0300 F   0  0  0  0  0  0  0  0  0  0  0  0
   47.8380   29.7830   46.2640 C   0  0  0  0  0  0  0  0  0  0  0  0
   44.9053   31.4509   45.8800 H   0  0  0  0  0  0  0  0  0  0  0  0
   46.5535   30.3792   48.2214 H   0  0  0  0  0  0  0  0  0  0  0  0
   44.9796   31.1887   48.3477 H   0  0  0  0  0  0  0  0  0  0  0  0
   45.5825   28.4541   47.7248 H   0  0  0  0  0  0  0  0  0  0  0  0
   43.9534   29.3119   47.8763 H   0  0  0  0  0  0  0  0  0  0  0  0
   44.2228   28.0086   45.8145 H   0  0  0  0  0  0  0  0  0  0  0  0
   43.8960   29.7643   45.5872 H   0  0  0  0  0  0  0  0  0  0  0  0
   45.6278   29.2396   44.0471 H   0  0  0  0  0  0  0  0  0  0  0  0
   46.5201   28.2643   45.2818 H   0  0  0  0  0  0  0  0  0  0  0  0
   46.9389   30.9139   44.6153 H   0  0  0  0  0  0  0  0  0  0  0  0
   43.8540   36.0555   45.2064 H   0  0  0  0  0  0  0  0  0  0  0  0
   44.9150   36.2328   42.9280 H   0  0  0  0  0  0  0  0  0  0  0  0
   47.6476   29.8700   47.3439 H   0  0  0  0  0  0  0  0  0  0  0  0
   47.9912   28.7255   46.0027 H   0  0  0  0  0  0  0  0  0  0  0  0
   48.7378   30.3593   46.0027 H   0  0  0  0  0  0  0  0  0  0  0  0
  1  7  1  0
  1  2  1  0
  3  2  1  0
  4  3  1  0
  5  6  1  0
  5  4  1  0
  6 19  1  0
  6  1  1  0
  7  8  2  0
  9 14  2  0
 10  9  1  0
 11 10  2  0
 11 12  1  0
 12 13  2  0
 13 14  1  0
 13  7  1  0
 15 17  1  0
 15 11  1  0
 16 15  1  0
 18 15  1  0
  1 20  1  6
  2 21  1  0
  2 22  1  0
  3 23  1  0
  3 24  1  0
  4 25  1  0
  4 26  1  0
  5 27  1  0
  5 28  1  0
  6 29  1  6
  9 30  1  0
 10 31  1  0
 19 32  1  0
 19 33  1  0
 19 34  1  0
M  ISO  8  20  13  21  13  22  13  23  13  24  13  25  13  26  13  27  13
M  ISO  7  28  13  29  13  30  14  31  14  32   8  33   8  34   8
M  END
>  <minimizedAffinity>  (1) 
-5.2042799

>  <minimizedRMSD>  (1) 
1.68231249

$$$$
