
     RDKit          3D

 48 51  0  0  1  0  0  0  0  0999 V2000
   45.7210   31.1350   46.5690 C   0  0  2  0  0  0  0  0  0  0  0  0
   45.8330   30.3050   47.8090 C   0  0  0  0  0  0  0  0  0  0  0  0
   45.0600   29.0540   47.5650 C   0  0  0  0  0  0  0  0  0  0  0  0
   44.3050   28.9990   46.2900 C   0  0  0  0  0  0  0  0  0  0  0  0
   45.2400   29.2300   45.1110 C   0  0  0  0  0  0  0  0  0  0  0  0
   46.1650   30.3110   45.3820 C   0  0  2  0  0  0  0  0  0  0  0  0
   47.4940   29.6990   45.6580 C   0  0  0  0  0  0  0  0  0  0  0  0
   49.6880   29.4350   44.5820 C   0  0  0  0  0  0  0  0  0  0  0  0
   48.4610   30.1040   44.6180 C   0  0  0  0  0  0  0  0  0  0  0  0
   48.3370   31.0440   43.6200 C   0  0  0  0  0  0  0  0  0  0  0  0
   49.3160   31.2900   42.6980 C   0  0  0  0  0  0  0  0  0  0  0  0
   49.3340   32.1700   41.6790 N   0  0  0  0  0  0  0  0  0  0  0  0
   50.5110   32.0570   41.0380 C   0  0  0  0  0  0  0  0  0  0  0  0
   51.2800   31.0750   41.6630 C   0  0  0  0  0  0  0  0  0  0  0  0
   50.5090   30.6070   42.7020 C   0  0  0  0  0  0  0  0  0  0  0  0
   50.7040   29.6480   43.6740 C   0  0  0  0  0  0  0  0  0  0  0  0
   46.3980   32.4500   46.6570 C   0  0  0  0  0  0  0  0  0  0  0  0
   47.3800   32.6700   47.4080 O   0  0  0  0  0  0  0  0  0  0  0  0
   44.5040   35.3690   45.5490 C   0  0  0  0  0  0  0  0  0  0  0  0
   44.8700   35.5330   44.1940 C   0  0  0  0  0  0  0  0  0  0  0  0
   45.7800   34.6220   43.6890 C   0  0  0  0  0  0  0  0  0  0  0  0
   46.2010   33.6950   44.5540 N   0  0  0  0  0  0  0  0  0  0  0  0
   45.8680   33.5330   45.8110 C   0  0  0  0  0  0  0  0  0  0  0  0
   44.9860   34.4080   46.3200 N   0  0  0  0  0  0  0  0  0  0  0  0
   46.1660   34.7680   42.2890 C   0  0  0  0  0  0  0  0  0  0  0  0
   46.5130   33.5470   41.7660 F   0  0  0  0  0  0  0  0  0  0  0  0
   47.2480   35.5890   42.2660 F   0  0  0  0  0  0  0  0  0  0  0  0
   45.1150   35.2430   41.5140 F   0  0  0  0  0  0  0  0  0  0  0  0
   44.6633   31.4070   46.4372 H   0  0  0  0  0  0  0  0  0  0  0  0
   46.8876   30.0648   48.0093 H   0  0  0  0  0  0  0  0  0  0  0  0
   45.4395   30.8466   48.6818 H   0  0  0  0  0  0  0  0  0  0  0  0
   45.7685   28.2126   47.5740 H   0  0  0  0  0  0  0  0  0  0  0  0
   44.3030   29.0109   48.3620 H   0  0  0  0  0  0  0  0  0  0  0  0
   43.8329   28.0105   46.1903 H   0  0  0  0  0  0  0  0  0  0  0  0
   43.5359   29.7854   46.2958 H   0  0  0  0  0  0  0  0  0  0  0  0
   44.6423   29.4830   44.2229 H   0  0  0  0  0  0  0  0  0  0  0  0
   45.8186   28.3104   44.9391 H   0  0  0  0  0  0  0  0  0  0  0  0
   46.2090   30.9878   44.5160 H   0  0  0  0  0  0  0  0  0  0  0  0
   47.8536   30.0365   46.6413 H   0  0  0  0  0  0  0  0  0  0  0  0
   47.3956   28.6034   45.6533 H   0  0  0  0  0  0  0  0  0  0  0  0
   49.8592   28.6664   45.3501 H   0  0  0  0  0  0  0  0  0  0  0  0
   47.4050   31.6254   43.5615 H   0  0  0  0  0  0  0  0  0  0  0  0
   48.5743   32.8202   41.4320 H   0  0  0  0  0  0  0  0  0  0  0  0
   50.8183   32.6452   40.1607 H   0  0  0  0  0  0  0  0  0  0  0  0
   52.2912   30.7441   41.3836 H   0  0  0  0  0  0  0  0  0  0  0  0
   51.6396   29.0717   43.7234 H   0  0  0  0  0  0  0  0  0  0  0  0
   43.7822   36.0757   45.9845 H   0  0  0  0  0  0  0  0  0  0  0  0
   44.4538   36.3412   43.5746 H   0  0  0  0  0  0  0  0  0  0  0  0
  1 17  1  0
  1  2  1  0
  3  2  1  0
  4  3  1  0
  5  6  1  0
  5  4  1  0
  6  7  1  0
  6  1  1  0
  8  9  2  0
  9  7  1  0
 10  9  1  0
 11 15  1  0
 11 10  2  0
 12 11  1  0
 13 14  2  0
 13 12  1  0
 14 15  1  0
 15 16  2  0
 16  8  1  0
 17 18  2  0
 19 24  2  0
 20 19  1  0
 21 20  2  0
 21 22  1  0
 22 23  2  0
 23 24  1  0
 23 17  1  0
 25 21  1  0
 26 25  1  0
 27 25  1  0
 28 25  1  0
  1 29  1  6
  2 30  1  0
  2 31  1  0
  3 32  1  0
  3 33  1  0
  4 34  1  0
  4 35  1  0
  5 36  1  0
  5 37  1  0
  6 38  1  6
  7 39  1  0
  7 40  1  0
  8 41  1  0
 10 42  1  0
 12 43  1  0
 13 44  1  0
 14 45  1  0
 16 46  1  0
 19 47  1  0
 20 48  1  0
M  ISO  8  29  13  30  13  31  13  32  13  33  13  34  13  35  13  36  13
M  ISO  8  37  13  38  13  39   8  40   8  41  14  42  14  43   9  44  14
M  ISO  4  45  14  46  14  47  14  48  14
M  END
>  <minimizedAffinity>  (1) 
-5.79449654

>  <minimizedRMSD>  (1) 
2.15887547

$$$$
