
     RDKit          3D

 47 50  0  0  1  0  0  0  0  0999 V2000
   45.7320   31.1480   46.5760 C   0  0  2  0  0  0  0  0  0  0  0  0
   45.8850   30.2960   47.7970 C   0  0  0  0  0  0  0  0  0  0  0  0
   45.1010   29.0540   47.5710 C   0  0  0  0  0  0  0  0  0  0  0  0
   44.3240   29.0040   46.3020 C   0  0  0  0  0  0  0  0  0  0  0  0
   45.2200   29.2590   45.1070 C   0  0  0  0  0  0  0  0  0  0  0  0
   46.1500   30.3420   45.3620 C   0  0  2  0  0  0  0  0  0  0  0  0
   47.4880   29.7290   45.5980 C   0  0  0  0  0  0  0  0  0  0  0  0
   49.6670   29.4640   44.5320 C   0  0  0  0  0  0  0  0  0  0  0  0
   48.4400   30.1420   44.5500 C   0  0  0  0  0  0  0  0  0  0  0  0
   48.3140   31.0800   43.5500 C   0  0  0  0  0  0  0  0  0  0  0  0
   49.3240   31.2990   42.6380 C   0  0  0  0  0  0  0  0  0  0  0  0
   50.5180   30.6100   42.6540 C   0  0  0  0  0  0  0  0  0  0  0  0
   50.6920   29.6640   43.6310 C   0  0  0  0  0  0  0  0  0  0  0  0
   51.3030   31.0740   41.6070 O   0  0  0  0  0  0  0  0  0  0  0  0
   50.4570   31.8560   40.7590 C   0  0  0  0  0  0  0  0  0  0  0  0
   49.3500   32.2120   41.5680 O   0  0  0  0  0  0  0  0  0  0  0  0
   46.4090   32.4620   46.6650 C   0  0  0  0  0  0  0  0  0  0  0  0
   47.3810   32.6870   47.4210 O   0  0  0  0  0  0  0  0  0  0  0  0
   44.5110   35.3650   45.5260 C   0  0  0  0  0  0  0  0  0  0  0  0
   44.8930   35.5260   44.1690 C   0  0  0  0  0  0  0  0  0  0  0  0
   45.8140   34.6190   43.6790 C   0  0  0  0  0  0  0  0  0  0  0  0
   46.2270   33.7020   44.5570 N   0  0  0  0  0  0  0  0  0  0  0  0
   45.8840   33.5400   45.8080 C   0  0  0  0  0  0  0  0  0  0  0  0
   44.9890   34.4120   46.3040 N   0  0  0  0  0  0  0  0  0  0  0  0
   46.2210   34.7580   42.2790 C   0  0  0  0  0  0  0  0  0  0  0  0
   46.6140   33.5430   41.7770 F   0  0  0  0  0  0  0  0  0  0  0  0
   47.2680   35.6220   42.2700 F   0  0  0  0  0  0  0  0  0  0  0  0
   45.1660   35.1920   41.4840 F   0  0  0  0  0  0  0  0  0  0  0  0
   44.6703   31.4195   46.4806 H   0  0  0  0  0  0  0  0  0  0  0  0
   46.9454   30.0485   47.9527 H   0  0  0  0  0  0  0  0  0  0  0  0
   45.5238   30.8272   48.6900 H   0  0  0  0  0  0  0  0  0  0  0  0
   45.8023   28.2066   47.5717 H   0  0  0  0  0  0  0  0  0  0  0  0
   44.3569   29.0172   48.3803 H   0  0  0  0  0  0  0  0  0  0  0  0
   43.8635   28.0101   46.2009 H   0  0  0  0  0  0  0  0  0  0  0  0
   43.5504   29.7854   46.3334 H   0  0  0  0  0  0  0  0  0  0  0  0
   44.5947   29.5212   44.2408 H   0  0  0  0  0  0  0  0  0  0  0  0
   45.7998   28.3454   44.9090 H   0  0  0  0  0  0  0  0  0  0  0  0
   46.1713   31.0289   44.5031 H   0  0  0  0  0  0  0  0  0  0  0  0
   47.8665   30.0535   46.5785 H   0  0  0  0  0  0  0  0  0  0  0  0
   47.3860   28.6340   45.5730 H   0  0  0  0  0  0  0  0  0  0  0  0
   49.8271   28.7017   45.3086 H   0  0  0  0  0  0  0  0  0  0  0  0
   47.3869   31.6675   43.4773 H   0  0  0  0  0  0  0  0  0  0  0  0
   51.6227   29.0810   43.6945 H   0  0  0  0  0  0  0  0  0  0  0  0
   50.1272   31.2650   39.8918 H   0  0  0  0  0  0  0  0  0  0  0  0
   50.9769   32.7396   40.3604 H   0  0  0  0  0  0  0  0  0  0  0  0
   43.7804   36.0692   45.9506 H   0  0  0  0  0  0  0  0  0  0  0  0
   44.4789   36.3287   43.5412 H   0  0  0  0  0  0  0  0  0  0  0  0
  1 17  1  0
  1  2  1  0
  3  2  1  0
  4  3  1  0
  5  6  1  0
  5  4  1  0
  6  7  1  0
  6  1  1  0
  8  9  2  0
  9  7  1  0
 10  9  1  0
 11 12  1  0
 11 10  2  0
 12 13  2  0
 13  8  1  0
 14 12  1  0
 15 16  1  0
 15 14  1  0
 16 11  1  0
 17 18  2  0
 19 24  2  0
 20 19  1  0
 21 20  2  0
 21 22  1  0
 22 23  2  0
 23 24  1  0
 23 17  1  0
 25 21  1  0
 26 25  1  0
 27 25  1  0
 28 25  1  0
  1 29  1  6
  2 30  1  0
  2 31  1  0
  3 32  1  0
  3 33  1  0
  4 34  1  0
  4 35  1  0
  5 36  1  0
  5 37  1  0
  6 38  1  6
  7 39  1  0
  7 40  1  0
  8 41  1  0
 10 42  1  0
 13 43  1  0
 15 44  1  0
 15 45  1  0
 19 46  1  0
 20 47  1  0
M  ISO  8  29  13  30  13  31  13  32  13  33  13  34  13  35  13  36  13
M  ISO  8  37  13  38  13  39   8  40   8  41  14  42  14  43  14  44  13
M  ISO  3  45  13  46  14  47  14
M  END
>  <minimizedAffinity>  (1) 
-5.7578578

>  <minimizedRMSD>  (1) 
2.28272104

$$$$
