
     RDKit          3D

 40 41  0  0  1  0  0  0  0  0999 V2000
   45.9790   31.1020   46.4470 C   0  0  2  0  0  0  0  0  0  0  0  0
   45.1160   30.6140   47.5650 C   0  0  0  0  0  0  0  0  0  0  0  0
   44.6040   29.2710   47.1880 C   0  0  0  0  0  0  0  0  0  0  0  0
   44.9880   28.7940   45.8240 C   0  0  0  0  0  0  0  0  0  0  0  0
   46.4830   28.8370   45.6570 C   0  0  0  0  0  0  0  0  0  0  0  0
   47.0560   30.0680   46.1850 C   0  0  2  0  0  0  0  0  0  0  0  0
   47.7250   29.6710   47.4520 C   0  0  0  0  0  0  0  0  0  0  0  0
   49.0840   29.9130   47.4890 O   0  0  0  0  0  0  0  0  0  0  0  0
   51.0640   30.8450   48.9560 O   0  0  0  0  0  0  0  0  0  0  0  0
   49.6870   30.2100   49.0280 P   0  0  0  0  0  0  0  0  0  0  0  0
   49.7560   28.7380   49.8670 O   0  0  0  0  0  0  0  0  0  0  0  0
   48.6340   31.2740   49.8300 O   0  0  0  0  0  0  0  0  0  0  0  0
   46.5190   32.4640   46.6250 C   0  0  0  0  0  0  0  0  0  0  0  0
   47.3400   32.7530   47.5340 O   0  0  0  0  0  0  0  0  0  0  0  0
   44.6730   35.2770   45.2110 C   0  0  0  0  0  0  0  0  0  0  0  0
   45.1940   35.4150   43.9010 C   0  0  0  0  0  0  0  0  0  0  0  0
   46.1890   34.5180   43.5380 C   0  0  0  0  0  0  0  0  0  0  0  0
   46.5360   33.6310   44.4730 N   0  0  0  0  0  0  0  0  0  0  0  0
   46.0580   33.4970   45.6920 C   0  0  0  0  0  0  0  0  0  0  0  0
   45.0930   34.3520   46.0700 N   0  0  0  0  0  0  0  0  0  0  0  0
   46.7290   34.6450   42.1890 C   0  0  0  0  0  0  0  0  0  0  0  0
   47.4540   33.5110   41.8670 F   0  0  0  0  0  0  0  0  0  0  0  0
   47.5580   35.7200   42.1980 F   0  0  0  0  0  0  0  0  0  0  0  0
   45.7240   34.7400   41.2340 F   0  0  0  0  0  0  0  0  0  0  0  0
   45.3414   31.2118   45.5574 H   0  0  0  0  0  0  0  0  0  0  0  0
   45.7063   30.5436   48.4905 H   0  0  0  0  0  0  0  0  0  0  0  0
   44.2816   31.3093   47.7390 H   0  0  0  0  0  0  0  0  0  0  0  0
   44.9861   28.5450   47.9207 H   0  0  0  0  0  0  0  0  0  0  0  0
   43.5075   29.3580   47.1793 H   0  0  0  0  0  0  0  0  0  0  0  0
   44.6375   27.7601   45.6892 H   0  0  0  0  0  0  0  0  0  0  0  0
   44.5251   29.4501   45.0722 H   0  0  0  0  0  0  0  0  0  0  0  0
   46.9246   27.9823   46.1904 H   0  0  0  0  0  0  0  0  0  0  0  0
   46.7060   28.7927   44.5808 H   0  0  0  0  0  0  0  0  0  0  0  0
   47.7574   30.5291   45.4741 H   0  0  0  0  0  0  0  0  0  0  0  0
   47.2555   30.2281   48.2762 H   0  0  0  0  0  0  0  0  0  0  0  0
   47.6017   28.5814   47.5395 H   0  0  0  0  0  0  0  0  0  0  0  0
   49.7478   28.9128   50.8414 H   0  0  0  0  0  0  0  0  0  0  0  0
   48.7394   31.1675   50.8086 H   0  0  0  0  0  0  0  0  0  0  0  0
   43.8816   35.9693   45.5342 H   0  0  0  0  0  0  0  0  0  0  0  0
   44.8303   36.1898   43.2100 H   0  0  0  0  0  0  0  0  0  0  0  0
  1 13  1  0
  1  2  1  0
  3  2  1  0
  4  3  1  0
  5  4  1  0
  5  6  1  0
  6  1  1  0
  6  7  1  0
  7  8  1  0
  8 10  1  0
  9 10  2  0
 10 12  1  0
 10 11  1  0
 13 14  2  0
 15 20  2  0
 16 15  1  0
 17 16  2  0
 17 18  1  0
 18 19  2  0
 19 20  1  0
 19 13  1  0
 21 23  1  0
 21 17  1  0
 22 21  1  0
 24 21  1  0
  1 25  1  6
  2 26  1  0
  2 27  1  0
  3 28  1  0
  3 29  1  0
  4 30  1  0
  4 31  1  0
  5 32  1  0
  5 33  1  0
  6 34  1  6
  7 35  1  0
  7 36  1  0
 11 37  1  0
 12 38  1  0
 15 39  1  0
 16 40  1  0
M  ISO  8  25  13  26  13  27  13  28  13  29  13  30  13  31  13  32  13
M  ISO  8  33  13  34  13  35   8  36   8  37   3  38   3  39  14  40  14
M  END
>  <minimizedAffinity>  (1) 
-5.63472748

>  <minimizedRMSD>  (1) 
0.737534106

$$$$
