
     RDKit          3D

 48 50  0  0  1  0  0  0  0  0999 V2000
   45.8090   31.2660   46.6210 C   0  0  2  0  0  0  0  0  0  0  0  0
   45.9470   30.4750   47.8810 C   0  0  0  0  0  0  0  0  0  0  0  0
   45.1680   29.2200   47.7040 C   0  0  0  0  0  0  0  0  0  0  0  0
   44.4110   29.1040   46.4110 C   0  0  0  0  0  0  0  0  0  0  0  0
   45.3340   29.3020   45.2400 C   0  0  0  0  0  0  0  0  0  0  0  0
   46.2540   30.4110   45.4520 C   0  0  2  0  0  0  0  0  0  0  0  0
   47.5760   29.7860   45.7370 C   0  0  0  0  0  0  0  0  0  0  0  0
   48.5210   29.8830   44.6760 N   0  0  0  0  0  0  0  0  0  0  0  0
   49.5890   28.9850   44.6110 C   0  0  0  0  0  0  0  0  0  0  0  0
   50.8330   29.5870   43.9970 C   0  0  0  0  0  0  0  0  0  0  0  0
   50.5110   30.2470   42.7820 N   0  0  0  0  0  0  0  0  0  0  0  0
   49.4490   31.2010   42.8260 C   0  0  0  0  0  0  0  0  0  0  0  0
   48.2450   30.7350   43.6000 C   0  0  0  0  0  0  0  0  0  0  0  0
   46.4820   32.5840   46.6490 C   0  0  0  0  0  0  0  0  0  0  0  0
   47.4140   32.8620   47.4360 O   0  0  0  0  0  0  0  0  0  0  0  0
   44.5900   35.3470   45.1790 C   0  0  0  0  0  0  0  0  0  0  0  0
   45.0980   35.4680   43.8670 C   0  0  0  0  0  0  0  0  0  0  0  0
   46.1110   34.5730   43.5130 C   0  0  0  0  0  0  0  0  0  0  0  0
   46.4710   33.7150   44.4680 N   0  0  0  0  0  0  0  0  0  0  0  0
   46.0000   33.5980   45.6920 C   0  0  0  0  0  0  0  0  0  0  0  0
   45.0240   34.4490   46.0530 N   0  0  0  0  0  0  0  0  0  0  0  0
   46.6360   34.6850   42.1650 C   0  0  0  0  0  0  0  0  0  0  0  0
   47.3070   33.5140   41.8280 F   0  0  0  0  0  0  0  0  0  0  0  0
   47.5250   35.7130   42.1680 F   0  0  0  0  0  0  0  0  0  0  0  0
   45.6330   34.8250   41.2130 F   0  0  0  0  0  0  0  0  0  0  0  0
   44.7456   31.5231   46.5063 H   0  0  0  0  0  0  0  0  0  0  0  0
   47.0058   30.2382   48.0626 H   0  0  0  0  0  0  0  0  0  0  0  0
   45.5725   31.0472   48.7426 H   0  0  0  0  0  0  0  0  0  0  0  0
   45.8696   28.3748   47.7627 H   0  0  0  0  0  0  0  0  0  0  0  0
   44.4079   29.2223   48.4992 H   0  0  0  0  0  0  0  0  0  0  0  0
   43.9546   28.1052   46.3472 H   0  0  0  0  0  0  0  0  0  0  0  0
   43.6316   29.8798   46.3845 H   0  0  0  0  0  0  0  0  0  0  0  0
   44.7310   29.5073   44.3432 H   0  0  0  0  0  0  0  0  0  0  0  0
   45.9294   28.3852   45.1178 H   0  0  0  0  0  0  0  0  0  0  0  0
   46.2948   31.0731   44.5745 H   0  0  0  0  0  0  0  0  0  0  0  0
   48.0038   30.2780   46.6230 H   0  0  0  0  0  0  0  0  0  0  0  0
   47.3865   28.7129   45.8872 H   0  0  0  0  0  0  0  0  0  0  0  0
   49.8285   28.6512   45.6314 H   0  0  0  0  0  0  0  0  0  0  0  0
   49.2766   28.1495   43.9673 H   0  0  0  0  0  0  0  0  0  0  0  0
   51.2703   30.3120   44.6993 H   0  0  0  0  0  0  0  0  0  0  0  0
   51.5546   28.7835   43.7882 H   0  0  0  0  0  0  0  0  0  0  0  0
   50.2520   29.5247   42.0948 H   0  0  0  0  0  0  0  0  0  0  0  0
   49.8283   32.1207   43.2954 H   0  0  0  0  0  0  0  0  0  0  0  0
   49.1202   31.3622   41.7888 H   0  0  0  0  0  0  0  0  0  0  0  0
   47.7285   31.6231   43.9930 H   0  0  0  0  0  0  0  0  0  0  0  0
   47.6370   30.1491   42.8950 H   0  0  0  0  0  0  0  0  0  0  0  0
   43.7911   36.0348   45.4930 H   0  0  0  0  0  0  0  0  0  0  0  0
   44.7180   36.2237   43.1638 H   0  0  0  0  0  0  0  0  0  0  0  0
  1 14  1  0
  1  2  1  0
  3  2  1  0
  4  3  1  0
  5  6  1  0
  5  4  1  0
  6  7  1  0
  6  1  1  0
  8  7  1  0
  9  8  1  0
 10  9  1  0
 11 12  1  0
 11 10  1  0
 12 13  1  0
 13  8  1  0
 14 15  2  0
 16 21  2  0
 17 16  1  0
 18 17  2  0
 18 19  1  0
 19 20  2  0
 20 21  1  0
 20 14  1  0
 22 24  1  0
 22 18  1  0
 23 22  1  0
 25 22  1  0
  1 26  1  6
  2 27  1  0
  2 28  1  0
  3 29  1  0
  3 30  1  0
  4 31  1  0
  4 32  1  0
  5 33  1  0
  5 34  1  0
  6 35  1  6
  7 36  1  0
  7 37  1  0
  9 38  1  0
  9 39  1  0
 10 40  1  0
 10 41  1  0
 11 42  1  0
 12 43  1  0
 12 44  1  0
 13 45  1  0
 13 46  1  0
 16 47  1  0
 17 48  1  0
M  ISO  8  26  13  27  13  28  13  29  13  30  13  31  13  32  13  33  13
M  ISO  8  34  13  35  13  36   8  37   8  38  13  39  13  40  13  41  13
M  ISO  7  42   5  43  13  44  13  45  13  46  13  47  14  48  14
M  END
>  <minimizedAffinity>  (1) 
-5.26744986

>  <minimizedRMSD>  (1) 
1.46029568

$$$$
