
     RDKit          3D

 49 51  0  0  1  0  0  0  0  0999 V2000
   45.9770   31.1680   46.5250 C   0  0  2  0  0  0  0  0  0  0  0  0
   45.2200   30.6700   47.7240 C   0  0  0  0  0  0  0  0  0  0  0  0
   44.6710   29.3240   47.3750 C   0  0  0  0  0  0  0  0  0  0  0  0
   44.9280   28.8570   45.9910 C   0  0  0  0  0  0  0  0  0  0  0  0
   46.3980   28.9100   45.6730 C   0  0  0  0  0  0  0  0  0  0  0  0
   47.0220   30.1290   46.1550 C   0  0  2  0  0  0  0  0  0  0  0  0
   47.7870   29.7490   47.3780 C   0  0  0  0  0  0  0  0  0  0  0  0
   49.2010   30.0710   47.3260 N   0  0  0  0  0  0  0  0  0  0  0  0
   49.7860   30.2990   48.6120 C   0  0  0  0  0  0  0  0  0  0  0  0
   49.7920   29.0370   49.4210 C   0  0  0  0  0  0  0  0  0  0  0  0
   50.8140   28.1220   48.7250 C   0  0  0  0  0  0  0  0  0  0  0  0
   50.1900   27.7940   47.3920 C   0  0  0  0  0  0  0  0  0  0  0  0
   49.9510   29.0470   46.6190 C   0  0  0  0  0  0  0  0  0  0  0  0
   46.5180   32.5270   46.6690 C   0  0  0  0  0  0  0  0  0  0  0  0
   47.3410   32.8470   47.5640 O   0  0  0  0  0  0  0  0  0  0  0  0
   44.6510   35.2890   45.1890 C   0  0  0  0  0  0  0  0  0  0  0  0
   45.1840   35.4050   43.8770 C   0  0  0  0  0  0  0  0  0  0  0  0
   46.1910   34.5190   43.5330 C   0  0  0  0  0  0  0  0  0  0  0  0
   46.5380   33.6560   44.4970 N   0  0  0  0  0  0  0  0  0  0  0  0
   46.0530   33.5370   45.7100 C   0  0  0  0  0  0  0  0  0  0  0  0
   45.0760   34.3870   46.0620 N   0  0  0  0  0  0  0  0  0  0  0  0
   46.7360   34.6240   42.1960 C   0  0  0  0  0  0  0  0  0  0  0  0
   47.4670   33.4780   41.8890 F   0  0  0  0  0  0  0  0  0  0  0  0
   47.5720   35.6910   42.1910 F   0  0  0  0  0  0  0  0  0  0  0  0
   45.7400   34.7200   41.2310 F   0  0  0  0  0  0  0  0  0  0  0  0
   45.2702   31.2840   45.6901 H   0  0  0  0  0  0  0  0  0  0  0  0
   45.8953   30.5886   48.5885 H   0  0  0  0  0  0  0  0  0  0  0  0
   44.4093   31.3647   47.9891 H   0  0  0  0  0  0  0  0  0  0  0  0
   45.1132   28.5906   48.0654 H   0  0  0  0  0  0  0  0  0  0  0  0
   43.5782   29.4182   47.4586 H   0  0  0  0  0  0  0  0  0  0  0  0
   44.5741   27.8205   45.8886 H   0  0  0  0  0  0  0  0  0  0  0  0
   44.3922   29.5156   45.2916 H   0  0  0  0  0  0  0  0  0  0  0  0
   46.8933   28.0485   46.1447 H   0  0  0  0  0  0  0  0  0  0  0  0
   46.5068   28.8860   44.5787 H   0  0  0  0  0  0  0  0  0  0  0  0
   47.6654   30.5657   45.3770 H   0  0  0  0  0  0  0  0  0  0  0  0
   47.3458   30.2757   48.2370 H   0  0  0  0  0  0  0  0  0  0  0  0
   47.7177   28.6545   47.4636 H   0  0  0  0  0  0  0  0  0  0  0  0
   50.8205   30.6495   48.4814 H   0  0  0  0  0  0  0  0  0  0  0  0
   49.1911   31.0571   49.1425 H   0  0  0  0  0  0  0  0  0  0  0  0
   50.1002   29.2432   50.4566 H   0  0  0  0  0  0  0  0  0  0  0  0
   48.7946   28.5762   49.4747 H   0  0  0  0  0  0  0  0  0  0  0  0
   51.7717   28.6451   48.5866 H   0  0  0  0  0  0  0  0  0  0  0  0
   51.0336   27.2197   49.3146 H   0  0  0  0  0  0  0  0  0  0  0  0
   50.8671   27.1390   46.8240 H   0  0  0  0  0  0  0  0  0  0  0  0
   49.2300   27.2835   47.5584 H   0  0  0  0  0  0  0  0  0  0  0  0
   49.3943   28.7846   45.7073 H   0  0  0  0  0  0  0  0  0  0  0  0
   50.9429   29.4772   46.4164 H   0  0  0  0  0  0  0  0  0  0  0  0
   43.8500   35.9786   45.4937 H   0  0  0  0  0  0  0  0  0  0  0  0
   44.8147   36.1617   43.1691 H   0  0  0  0  0  0  0  0  0  0  0  0
  1 14  1  0
  1  2  1  0
  3  2  1  0
  4  3  1  0
  5  4  1  0
  5  6  1  0
  6  1  1  0
  6  7  1  0
  8  7  1  0
  8  9  1  0
  9 10  1  0
 11 10  1  0
 12 11  1  0
 13  8  1  0
 13 12  1  0
 14 15  2  0
 16 21  2  0
 17 16  1  0
 18 17  2  0
 18 19  1  0
 19 20  2  0
 20 21  1  0
 20 14  1  0
 22 18  1  0
 23 22  1  0
 24 22  1  0
 25 22  1  0
  1 26  1  6
  2 27  1  0
  2 28  1  0
  3 29  1  0
  3 30  1  0
  4 31  1  0
  4 32  1  0
  5 33  1  0
  5 34  1  0
  6 35  1  6
  7 36  1  0
  7 37  1  0
  9 38  1  0
  9 39  1  0
 10 40  1  0
 10 41  1  0
 11 42  1  0
 11 43  1  0
 12 44  1  0
 12 45  1  0
 13 46  1  0
 13 47  1  0
 16 48  1  0
 17 49  1  0
M  ISO  8  26  13  27  13  28  13  29  13  30  13  31  13  32  13  33  13
M  ISO  8  34  13  35  13  36   8  37   8  38  13  39  13  40  13  41  13
M  ISO  8  42  13  43  13  44  13  45  13  46  13  47  13  48  14  49  14
M  END
>  <minimizedAffinity>  (1) 
-5.23643112

>  <minimizedRMSD>  (1) 
0.804511309

$$$$
