
     RDKit          3D

 31 33  0  0  1  0  0  0  0  0999 V2000
   44.8650   34.3910   43.1670 C   0  0  1  0  0  0  0  0  0  0  0  0
   45.1570   35.8980   43.4310 C   0  0  0  0  0  0  0  0  0  0  0  0
   45.7130   35.1410   42.2900 C   0  0  1  0  0  0  0  0  0  0  0  0
   47.1920   35.1190   42.1570 C   0  0  0  0  0  0  0  0  0  0  0  0
   47.7830   34.1540   43.2060 C   0  0  0  0  0  0  0  0  0  0  0  0
   49.0300   33.4980   42.6800 C   0  0  0  0  0  0  0  0  0  0  0  0
   48.8330   32.6920   41.5870 O   0  0  0  0  0  0  0  0  0  0  0  0
   47.6340   33.0310   40.9290 C   0  0  0  0  0  0  0  0  0  0  0  0
   47.6250   34.5280   40.8350 C   0  0  0  0  0  0  0  0  0  0  0  0
   45.3200   33.5260   44.2890 C   0  0  0  0  0  0  0  0  0  0  0  0
   45.5820   32.1690   43.9660 C   0  0  0  0  0  0  0  0  0  0  0  0
   46.0320   31.3290   44.9720 C   0  0  0  0  0  0  0  0  0  0  0  0
   46.1940   31.8720   46.2260 N   0  0  0  0  0  0  0  0  0  0  0  0
   45.9360   33.1560   46.4920 C   0  0  0  0  0  0  0  0  0  0  0  0
   45.4970   33.9900   45.5270 N   0  0  0  0  0  0  0  0  0  0  0  0
   44.0417   33.7008   42.9310 H   0  0  0  0  0  0  0  0  0  0  0  0
   44.3757   36.6560   43.2729 H   0  0  0  0  0  0  0  0  0  0  0  0
   45.5552   36.5018   44.2598 H   0  0  0  0  0  0  0  0  0  0  0  0
   45.6897   35.1633   41.1905 H   0  0  0  0  0  0  0  0  0  0  0  0
   47.5311   36.1597   42.2664 H   0  0  0  0  0  0  0  0  0  0  0  0
   48.0285   34.7180   44.1180 H   0  0  0  0  0  0  0  0  0  0  0  0
   47.0396   33.3744   43.4287 H   0  0  0  0  0  0  0  0  0  0  0  0
   49.7417   34.2886   42.3997 H   0  0  0  0  0  0  0  0  0  0  0  0
   49.4035   32.8473   43.4844 H   0  0  0  0  0  0  0  0  0  0  0  0
   47.6098   32.5845   39.9240 H   0  0  0  0  0  0  0  0  0  0  0  0
   46.7549   32.6555   41.4732 H   0  0  0  0  0  0  0  0  0  0  0  0
   48.6359   34.8849   40.5885 H   0  0  0  0  0  0  0  0  0  0  0  0
   46.9213   34.8393   40.0489 H   0  0  0  0  0  0  0  0  0  0  0  0
   45.4316   31.7936   42.9430 H   0  0  0  0  0  0  0  0  0  0  0  0
   46.2513   30.2691   44.7758 H   0  0  0  0  0  0  0  0  0  0  0  0
   46.0838   33.5383   47.5128 H   0  0  0  0  0  0  0  0  0  0  0  0
  1  2  1  0
  1 10  1  0
  3  1  1  0
  3  2  1  0
  4  3  1  0
  4  5  1  0
  6  5  1  0
  7  6  1  0
  8  7  1  0
  9  8  1  0
  9  4  1  0
 10 15  1  0
 11 10  2  0
 11 12  1  0
 12 13  2  0
 13 14  1  0
 15 14  2  0
  1 16  1  6
  2 17  1  0
  2 18  1  0
  3 19  1  6
  4 20  1  0
  5 21  1  0
  5 22  1  0
  6 23  1  0
  6 24  1  0
  8 25  1  0
  8 26  1  0
  9 27  1  0
  9 28  1  0
 11 29  1  0
 12 30  1  0
 14 31  1  0
M  ISO  8  16  13  17  13  18  13  19  13  20  13  21  13  22  13  23  13
M  ISO  8  24  13  25  13  26  13  27  13  28  13  29  14  30  14  31  14
M  END
>  <minimizedAffinity>  (1) 
-4.35235119

>  <minimizedRMSD>  (1) 
1.31754148

$$$$
