
     RDKit          3D

 34 37  0  0  1  0  0  0  0  0999 V2000
   44.6740   34.4780   43.2560 C   0  0  1  0  0  0  0  0  0  0  0  0
   45.4810   35.7430   42.9690 C   0  0  0  0  0  0  0  0  0  0  0  0
   45.0370   34.9780   41.9040 C   0  0  1  0  0  0  0  0  0  0  0  0
   45.9940   34.3370   41.0020 C   0  0  0  0  0  0  0  0  0  0  0  0
   45.6370   33.4500   39.9810 C   0  0  0  0  0  0  0  0  0  0  0  0
   46.5190   32.8040   39.1390 C   0  0  0  0  0  0  0  0  0  0  0  0
   47.8450   33.0440   39.3130 C   0  0  0  0  0  0  0  0  0  0  0  0
   48.2770   33.9170   40.3070 C   0  0  0  0  0  0  0  0  0  0  0  0
   47.3320   34.5300   41.1110 C   0  0  0  0  0  0  0  0  0  0  0  0
   48.0580   35.5190   41.9970 C   0  0  0  0  0  0  0  0  0  0  0  0
   49.4820   35.0610   42.4730 C   0  0  0  0  0  0  0  0  0  0  0  0
   49.3190   36.1200   41.5050 C   0  0  0  0  0  0  0  0  0  0  0  0
   45.4080   33.3680   43.9010 C   0  0  0  0  0  0  0  0  0  0  0  0
   45.1280   32.0800   43.4020 C   0  0  0  0  0  0  0  0  0  0  0  0
   45.8380   31.0280   44.0220 C   0  0  0  0  0  0  0  0  0  0  0  0
   46.7120   31.3220   45.0230 N   0  0  0  0  0  0  0  0  0  0  0  0
   46.9330   32.5970   45.4550 C   0  0  0  0  0  0  0  0  0  0  0  0
   46.2800   33.6420   44.8970 N   0  0  0  0  0  0  0  0  0  0  0  0
   43.7369   34.1724   43.7444 H   0  0  0  0  0  0  0  0  0  0  0  0
   45.0345   36.7307   43.1564 H   0  0  0  0  0  0  0  0  0  0  0  0
   46.4628   36.1207   43.2906 H   0  0  0  0  0  0  0  0  0  0  0  0
   44.4226   35.1646   41.0108 H   0  0  0  0  0  0  0  0  0  0  0  0
   44.5647   33.2510   39.8375 H   0  0  0  0  0  0  0  0  0  0  0  0
   46.1616   32.1197   38.3555 H   0  0  0  0  0  0  0  0  0  0  0  0
   48.5809   32.5457   38.6648 H   0  0  0  0  0  0  0  0  0  0  0  0
   49.3492   34.1160   40.4509 H   0  0  0  0  0  0  0  0  0  0  0  0
   47.1312   35.9100   42.4423 H   0  0  0  0  0  0  0  0  0  0  0  0
   49.8254   35.2908   43.4924 H   0  0  0  0  0  0  0  0  0  0  0  0
   50.0290   34.1073   42.5092 H   0  0  0  0  0  0  0  0  0  0  0  0
   49.6251   35.9454   40.4630 H   0  0  0  0  0  0  0  0  0  0  0  0
   49.6864   37.1559   41.4609 H   0  0  0  0  0  0  0  0  0  0  0  0
   44.4084   31.9065   42.5883 H   0  0  0  0  0  0  0  0  0  0  0  0
   45.6868   29.9869   43.7007 H   0  0  0  0  0  0  0  0  0  0  0  0
   47.6517   32.7777   46.2679 H   0  0  0  0  0  0  0  0  0  0  0  0
  1 13  1  0
  2  1  1  0
  3  2  1  0
  3  1  1  0
  4  9  1  0
  4  3  1  0
  5  4  2  0
  6  7  2  0
  6  5  1  0
  7  8  1  0
  8  9  2  0
  9 10  1  0
 10 11  1  0
 12 10  1  0
 12 11  1  0
 13 18  1  0
 14 13  2  0
 14 15  1  0
 15 16  2  0
 16 17  1  0
 18 17  2  0
  1 19  1  6
  2 20  1  0
  2 21  1  0
  3 22  1  6
  5 23  1  0
  6 24  1  0
  7 25  1  0
  8 26  1  0
 10 27  1  0
 11 28  1  0
 11 29  1  0
 12 30  1  0
 12 31  1  0
 14 32  1  0
 15 33  1  0
 17 34  1  0
M  ISO  8  19  13  20  13  21  13  22  13  23  14  24  14  25  14  26  14
M  ISO  8  27  13  28  13  29  13  30  13  31  13  32  14  33  14  34  14
M  END
>  <minimizedAffinity>  (1) 
-5.06612587

>  <minimizedRMSD>  (1) 
1.42509186

$$$$
