
     RDKit          3D

 31 33  0  0  1  0  0  0  0  0999 V2000
   44.5720   34.6700   43.5650 C   0  0  1  0  0  0  0  0  0  0  0  0
   45.1700   36.0640   43.4910 C   0  0  0  0  0  0  0  0  0  0  0  0
   45.2050   35.2420   42.3500 C   0  0  1  0  0  0  0  0  0  0  0  0
   46.5170   34.8380   41.8100 C   0  0  0  0  0  0  0  0  0  0  0  0
   47.7080   35.0210   42.4950 C   0  0  0  0  0  0  0  0  0  0  0  0
   48.9500   34.6760   42.0320 C   0  0  0  0  0  0  0  0  0  0  0  0
   49.0270   34.1000   40.7840 C   0  0  0  0  0  0  0  0  0  0  0  0
   47.8640   33.8920   40.0480 C   0  0  0  0  0  0  0  0  0  0  0  0
   46.6470   34.2650   40.5800 C   0  0  0  0  0  0  0  0  0  0  0  0
   45.2140   32.5920   39.6500 C   0  0  0  0  0  0  0  0  0  0  0  0
   45.7970   32.0440   40.6020 O   0  0  0  0  0  0  0  0  0  0  0  0
   45.6810   33.9650   39.5720 N   0  0  0  0  0  0  0  0  0  0  0  0
   45.2630   33.6830   44.4140 C   0  0  0  0  0  0  0  0  0  0  0  0
   45.4100   32.3810   43.8710 C   0  0  0  0  0  0  0  0  0  0  0  0
   46.0800   31.4520   44.6910 C   0  0  0  0  0  0  0  0  0  0  0  0
   46.5270   31.8610   45.9140 N   0  0  0  0  0  0  0  0  0  0  0  0
   46.3510   33.1330   46.3740 C   0  0  0  0  0  0  0  0  0  0  0  0
   45.7110   34.0640   45.6220 N   0  0  0  0  0  0  0  0  0  0  0  0
   43.6045   34.1944   43.7835 H   0  0  0  0  0  0  0  0  0  0  0  0
   44.5109   36.9444   43.5116 H   0  0  0  0  0  0  0  0  0  0  0  0
   45.9262   36.6123   44.0719 H   0  0  0  0  0  0  0  0  0  0  0  0
   44.8452   35.3034   41.3123 H   0  0  0  0  0  0  0  0  0  0  0  0
   47.6510   35.4812   43.4925 H   0  0  0  0  0  0  0  0  0  0  0  0
   49.8528   34.8527   42.6352 H   0  0  0  0  0  0  0  0  0  0  0  0
   50.0028   33.8056   40.3704 H   0  0  0  0  0  0  0  0  0  0  0  0
   47.9149   33.4335   39.0494 H   0  0  0  0  0  0  0  0  0  0  0  0
   44.4756   32.1204   38.9849 H   0  0  0  0  0  0  0  0  0  0  0  0
   45.3532   34.6441   38.8704 H   0  0  0  0  0  0  0  0  0  0  0  0
   45.0261   32.1143   42.8753 H   0  0  0  0  0  0  0  0  0  0  0  0
   46.2397   30.4177   44.3524 H   0  0  0  0  0  0  0  0  0  0  0  0
   46.7331   33.4080   47.3682 H   0  0  0  0  0  0  0  0  0  0  0  0
  1 13  1  0
  2  1  1  0
  3  2  1  0
  3  1  1  0
  4  3  1  0
  4  5  2  0
  6  5  1  0
  7  6  2  0
  8  9  2  0
  8  7  1  0
  9  4  1  0
 10 11  2  0
 12 10  1  0
 12  9  1  0
 13 18  1  0
 14 13  2  0
 14 15  1  0
 15 16  2  0
 16 17  1  0
 18 17  2  0
  1 19  1  6
  2 20  1  0
  2 21  1  0
  3 22  1  6
  5 23  1  0
  6 24  1  0
  7 25  1  0
  8 26  1  0
 10 27  1  0
 12 28  1  0
 14 29  1  0
 15 30  1  0
 17 31  1  0
M  ISO  8  19  13  20  13  21  13  22  13  23  14  24  14  25  14  26  14
M  ISO  4  27   6  29  14  30  14  31  14
M  END
>  <minimizedAffinity>  (1) 
-4.50407887

>  <minimizedRMSD>  (1) 
2.6220181

$$$$
