
     RDKit          3D

 26 27  0  0  1  0  0  0  0  0999 V2000
   47.3510   34.3050   42.1360 N   0  0  0  0  0  0  0  0  0  0  0  0
   48.0760   35.1090   41.1820 C   0  0  0  0  0  0  0  0  0  0  0  0
   47.8360   34.2610   39.9500 C   0  0  2  0  0  0  0  0  0  0  0  0
   48.3240   32.9290   40.4710 C   0  0  0  0  0  0  0  0  0  0  0  0
   47.7480   32.9250   41.8800 C   0  0  0  0  0  0  0  0  0  0  0  0
   44.7120   36.0140   44.1170 C   0  0  0  0  0  0  0  0  0  0  0  0
   45.5820   35.7620   43.0600 C   0  0  0  0  0  0  0  0  0  0  0  0
   46.4360   34.6580   43.1390 C   0  0  0  0  0  0  0  0  0  0  0  0
   46.3500   33.9020   44.2610 N   0  0  0  0  0  0  0  0  0  0  0  0
   45.5180   34.1380   45.2800 C   0  0  0  0  0  0  0  0  0  0  0  0
   44.6890   35.2010   45.2130 N   0  0  0  0  0  0  0  0  0  0  0  0
   48.3750   34.4970   37.5160 C   0  0  0  0  0  0  0  0  0  0  0  0
   47.2930   33.8780   37.3140 O   0  0  0  0  0  0  0  0  0  0  0  0
   48.6990   34.7210   38.8880 N   0  0  0  0  0  0  0  0  0  0  0  0
   47.6497   36.1180   41.0807 H   0  0  0  0  0  0  0  0  0  0  0  0
   49.1293   35.3097   41.4274 H   0  0  0  0  0  0  0  0  0  0  0  0
   46.8117   34.2638   39.5490 H   0  0  0  0  0  0  0  0  0  0  0  0
   47.9290   32.0945   39.8730 H   0  0  0  0  0  0  0  0  0  0  0  0
   49.4163   32.8053   40.4326 H   0  0  0  0  0  0  0  0  0  0  0  0
   46.8768   32.2560   41.9384 H   0  0  0  0  0  0  0  0  0  0  0  0
   48.4766   32.5632   42.6205 H   0  0  0  0  0  0  0  0  0  0  0  0
   44.0345   36.8793   44.0683 H   0  0  0  0  0  0  0  0  0  0  0  0
   45.5973   36.4197   42.1784 H   0  0  0  0  0  0  0  0  0  0  0  0
   45.5090   33.4767   46.1590 H   0  0  0  0  0  0  0  0  0  0  0  0
   49.0211   34.8389   36.6940 H   0  0  0  0  0  0  0  0  0  0  0  0
   49.5673   35.2216   39.1254 H   0  0  0  0  0  0  0  0  0  0  0  0
  1  8  1  0
  2  1  1  0
  3  4  1  0
  3  2  1  0
  4  5  1  0
  5  1  1  0
  6 11  2  0
  7  8  2  0
  7  6  1  0
  8  9  1  0
  9 10  2  0
 11 10  1  0
 12 14  1  0
 13 12  2  0
 14  3  1  0
  2 15  1  0
  2 16  1  0
  3 17  1  6
  4 18  1  0
  4 19  1  0
  5 20  1  0
  5 21  1  0
  6 22  1  0
  7 23  1  0
 10 24  1  0
 12 25  1  0
 14 26  1  0
M  ISO  8  15  13  16  13  17  13  18  13  19  13  20  13  21  13  22  14
M  ISO  3  23  14  24  14  25   6
M  END
>  <minimizedAffinity>  (1) 
-4.62761021

>  <minimizedRMSD>  (1) 
2.07844496

$$$$
