
     RDKit          3D

 24 25  0  0  1  0  0  0  0  0999 V2000
   46.9360   34.1070   42.4780 N   0  0  0  0  0  0  0  0  0  0  0  0
   48.1390   33.3010   42.4210 C   0  0  0  0  0  0  0  0  0  0  0  0
   48.9600   34.1480   41.4990 C   0  0  1  0  0  0  0  0  0  0  0  0
   47.9680   34.3220   40.3590 C   0  0  0  0  0  0  0  0  0  0  0  0
   46.6660   34.5090   41.1220 C   0  0  0  0  0  0  0  0  0  0  0  0
   44.5230   35.8720   44.6920 C   0  0  0  0  0  0  0  0  0  0  0  0
   45.2800   35.5890   43.5450 C   0  0  0  0  0  0  0  0  0  0  0  0
   46.1370   34.4710   43.5760 C   0  0  0  0  0  0  0  0  0  0  0  0
   46.1810   33.7340   44.7100 N   0  0  0  0  0  0  0  0  0  0  0  0
   45.4410   34.0300   45.7990 C   0  0  0  0  0  0  0  0  0  0  0  0
   44.6130   35.0980   45.7860 N   0  0  0  0  0  0  0  0  0  0  0  0
   49.4240   35.4030   42.0770 C   0  0  0  0  0  0  0  0  0  0  0  0
   49.3700   36.5010   41.5470 O   0  0  0  0  0  0  0  0  0  0  0  0
   48.6096   33.1956   43.4096 H   0  0  0  0  0  0  0  0  0  0  0  0
   47.9910   32.2611   42.0944 H   0  0  0  0  0  0  0  0  0  0  0  0
   49.9231   33.7007   41.2119 H   0  0  0  0  0  0  0  0  0  0  0  0
   47.9332   33.4302   39.7160 H   0  0  0  0  0  0  0  0  0  0  0  0
   48.2105   35.1472   39.6732 H   0  0  0  0  0  0  0  0  0  0  0  0
   46.3538   35.5633   41.0915 H   0  0  0  0  0  0  0  0  0  0  0  0
   45.8529   33.9137   40.6809 H   0  0  0  0  0  0  0  0  0  0  0  0
   43.8467   36.7395   44.6953 H   0  0  0  0  0  0  0  0  0  0  0  0
   45.2066   36.2214   42.6479 H   0  0  0  0  0  0  0  0  0  0  0  0
   45.5119   33.4010   46.6986 H   0  0  0  0  0  0  0  0  0  0  0  0
   49.8636   35.3561   43.0843 H   0  0  0  0  0  0  0  0  0  0  0  0
  1  8  1  0
  2  1  1  0
  3 12  1  0
  3  2  1  0
  4  5  1  0
  4  3  1  0
  5  1  1  0
  6 11  2  0
  7  8  2  0
  7  6  1  0
  8  9  1  0
  9 10  2  0
 11 10  1  0
 13 12  2  0
  2 14  1  0
  2 15  1  0
  3 16  1  6
  4 17  1  0
  4 18  1  0
  5 19  1  0
  5 20  1  0
  6 21  1  0
  7 22  1  0
 10 23  1  0
 12 24  1  0
M  ISO  8  14  13  15  13  16  13  17  13  18  13  19  13  20  13  21  14
M  ISO  3  22  14  23  14  24   6
M  END
>  <minimizedAffinity>  (1) 
-4.51780605

>  <minimizedRMSD>  (1) 
1.08215427

$$$$
