
     RDKit          3D

 24 25  0  0  1  0  0  0  0  0999 V2000
   47.1630   34.2480   42.3850 N   0  0  0  0  0  0  0  0  0  0  0  0
   48.0130   35.0420   41.5350 C   0  0  0  0  0  0  0  0  0  0  0  0
   47.6770   34.3840   40.2120 C   0  0  2  0  0  0  0  0  0  0  0  0
   47.9200   32.9350   40.5630 C   0  0  0  0  0  0  0  0  0  0  0  0
   47.3640   32.8610   41.9750 C   0  0  0  0  0  0  0  0  0  0  0  0
   44.5850   35.9420   44.4700 C   0  0  0  0  0  0  0  0  0  0  0  0
   45.4080   35.6930   43.3740 C   0  0  0  0  0  0  0  0  0  0  0  0
   46.2840   34.6080   43.4200 C   0  0  0  0  0  0  0  0  0  0  0  0
   46.2810   33.8390   44.5600 N   0  0  0  0  0  0  0  0  0  0  0  0
   45.4740   34.0960   45.6140 C   0  0  0  0  0  0  0  0  0  0  0  0
   44.6210   35.1570   45.5640 N   0  0  0  0  0  0  0  0  0  0  0  0
   48.6610   34.7360   39.2080 N   0  0  0  0  0  0  0  0  0  0  0  0
   47.7379   36.1069   41.5508 H   0  0  0  0  0  0  0  0  0  0  0  0
   49.0793   35.0593   41.8048 H   0  0  0  0  0  0  0  0  0  0  0  0
   46.6818   34.6485   39.8252 H   0  0  0  0  0  0  0  0  0  0  0  0
   47.3777   32.2616   39.8830 H   0  0  0  0  0  0  0  0  0  0  0  0
   48.9729   32.6270   40.4816 H   0  0  0  0  0  0  0  0  0  0  0  0
   46.4094   32.3145   41.9847 H   0  0  0  0  0  0  0  0  0  0  0  0
   48.0441   32.3275   42.6553 H   0  0  0  0  0  0  0  0  0  0  0  0
   43.8924   36.7961   44.4415 H   0  0  0  0  0  0  0  0  0  0  0  0
   45.3679   36.3415   42.4864 H   0  0  0  0  0  0  0  0  0  0  0  0
   45.5060   33.4528   46.5057 H   0  0  0  0  0  0  0  0  0  0  0  0
   49.5276   35.0460   39.6704 H   0  0  0  0  0  0  0  0  0  0  0  0
   48.8607   33.9142   38.6200 H   0  0  0  0  0  0  0  0  0  0  0  0
  1  8  1  0
  2  1  1  0
  3  4  1  0
  3  2  1  0
  4  5  1  0
  5  1  1  0
  6 11  2  0
  7  8  2  0
  7  6  1  0
  8  9  1  0
  9 10  2  0
 11 10  1  0
 12  3  1  0
  2 13  1  0
  2 14  1  0
  3 15  1  6
  4 16  1  0
  4 17  1  0
  5 18  1  0
  5 19  1  0
  6 20  1  0
  7 21  1  0
 10 22  1  0
 12 23  1  0
 12 24  1  0
M  ISO  8  13  13  14  13  15  13  16  13  17  13  18  13  19  13  20  14
M  ISO  4  21  14  22  14  23   5  24   5
M  END
>  <minimizedAffinity>  (1) 
-4.23497725

>  <minimizedRMSD>  (1) 
1.14754164

$$$$
