
     RDKit          3D

 39 41  0  0  1  0  0  0  0  0999 V2000
   47.5130   34.4990   42.4730 N   0  0  0  0  0  0  0  0  0  0  0  0
   47.4800   34.5610   41.0370 C   0  0  0  0  0  0  0  0  0  0  0  0
   48.2300   33.2720   40.7450 C   0  0  2  0  0  0  0  0  0  0  0  0
   49.4440   33.4400   41.6050 C   0  0  0  0  0  0  0  0  0  0  0  0
   48.8740   34.1220   42.8380 C   0  0  0  0  0  0  0  0  0  0  0  0
   44.5890   35.8550   44.3450 C   0  0  0  0  0  0  0  0  0  0  0  0
   45.5390   35.7170   43.3400 C   0  0  0  0  0  0  0  0  0  0  0  0
   46.5110   34.7320   43.4190 C   0  0  0  0  0  0  0  0  0  0  0  0
   46.4760   33.9140   44.5350 N   0  0  0  0  0  0  0  0  0  0  0  0
   45.5500   34.0530   45.5090 C   0  0  0  0  0  0  0  0  0  0  0  0
   44.6070   35.0250   45.4110 N   0  0  0  0  0  0  0  0  0  0  0  0
   48.6510   33.2670   39.3650 N   0  0  0  0  0  0  0  0  0  0  0  0
   47.3540   32.7950   35.6530 N   0  0  0  0  0  0  0  0  0  0  0  0
   48.6070   33.2570   36.1620 C   0  0  0  0  0  0  0  0  0  0  0  0
   48.3630   34.3500   37.1850 C   0  0  0  0  0  0  0  0  0  0  0  0
   47.7440   33.8360   38.4390 C   0  0  0  0  0  0  0  0  0  0  0  0
   46.7820   32.7230   38.0330 C   0  0  0  0  0  0  0  0  0  0  0  0
   46.2880   32.9210   36.6180 C   0  0  0  0  0  0  0  0  0  0  0  0
   46.4528   34.5422   40.6438 H   0  0  0  0  0  0  0  0  0  0  0  0
   47.8988   35.4728   40.5861 H   0  0  0  0  0  0  0  0  0  0  0  0
   47.6475   32.3568   40.9266 H   0  0  0  0  0  0  0  0  0  0  0  0
   49.8908   32.4672   41.8582 H   0  0  0  0  0  0  0  0  0  0  0  0
   50.2522   34.0079   41.1209 H   0  0  0  0  0  0  0  0  0  0  0  0
   49.4656   35.0134   43.0937 H   0  0  0  0  0  0  0  0  0  0  0  0
   48.8955   33.4632   43.7186 H   0  0  0  0  0  0  0  0  0  0  0  0
   43.8221   36.6403   44.2725 H   0  0  0  0  0  0  0  0  0  0  0  0
   45.5194   36.3954   42.4743 H   0  0  0  0  0  0  0  0  0  0  0  0
   45.5600   33.3803   46.3793 H   0  0  0  0  0  0  0  0  0  0  0  0
   49.5354   33.7913   39.3031 H   0  0  0  0  0  0  0  0  0  0  0  0
   47.1118   33.3480   34.8185 H   0  0  0  0  0  0  0  0  0  0  0  0
   49.1404   32.4211   36.6382 H   0  0  0  0  0  0  0  0  0  0  0  0
   49.2146   33.6556   35.3362 H   0  0  0  0  0  0  0  0  0  0  0  0
   49.3259   34.8196   37.4347 H   0  0  0  0  0  0  0  0  0  0  0  0
   47.6619   35.0713   36.7398 H   0  0  0  0  0  0  0  0  0  0  0  0
   47.2768   34.6986   38.9366 H   0  0  0  0  0  0  0  0  0  0  0  0
   47.3022   31.7561   38.1001 H   0  0  0  0  0  0  0  0  0  0  0  0
   45.9166   32.7439   38.7117 H   0  0  0  0  0  0  0  0  0  0  0  0
   45.8477   33.9254   36.5323 H   0  0  0  0  0  0  0  0  0  0  0  0
   45.5418   32.1413   36.4053 H   0  0  0  0  0  0  0  0  0  0  0  0
  1  5  1  0
  1  8  1  0
  2  1  1  0
  3  2  1  0
  3  4  1  0
  4  5  1  0
  6 11  2  0
  7  8  2  0
  7  6  1  0
  8  9  1  0
  9 10  2  0
 11 10  1  0
 12  3  1  0
 13 14  1  0
 13 18  1  0
 14 15  1  0
 15 16  1  0
 16 12  1  0
 17 16  1  0
 18 17  1  0
  2 19  1  0
  2 20  1  0
  3 21  1  1
  4 22  1  0
  4 23  1  0
  5 24  1  0
  5 25  1  0
  6 26  1  0
  7 27  1  0
 10 28  1  0
 12 29  1  0
 13 30  1  0
 14 31  1  0
 14 32  1  0
 15 33  1  0
 15 34  1  0
 16 35  1  0
 17 36  1  0
 17 37  1  0
 18 38  1  0
 18 39  1  0
M  ISO  8  19  13  20  13  21  13  22  13  23  13  24  13  25  13  26  14
M  ISO  8  27  14  28  14  29   5  30   5  31  13  32  13  33  13  34  13
M  ISO  5  35  13  36  13  37  13  38  13  39  13
M  END
>  <minimizedAffinity>  (1) 
-5.08225632

>  <minimizedRMSD>  (1) 
1.77070558

$$$$
