
     RDKit          3D

 35 37  0  0  1  0  0  0  0  0999 V2000
   47.3480   33.3980   43.6400 N   0  0  0  0  0  0  0  0  0  0  0  0
   48.1430   34.0230   42.6010 C   0  0  0  0  0  0  0  0  0  0  0  0
   48.0300   32.9620   41.5490 C   0  0  2  0  0  0  0  0  0  0  0  0
   48.3750   31.7170   42.3440 C   0  0  0  0  0  0  0  0  0  0  0  0
   47.7550   32.0090   43.6870 C   0  0  0  0  0  0  0  0  0  0  0  0
   44.5760   35.4430   45.0660 C   0  0  0  0  0  0  0  0  0  0  0  0
   45.5200   34.9910   44.1480 C   0  0  0  0  0  0  0  0  0  0  0  0
   46.3600   33.9380   44.4820 C   0  0  0  0  0  0  0  0  0  0  0  0
   46.2060   33.3930   45.7260 N   0  0  0  0  0  0  0  0  0  0  0  0
   45.2980   33.8240   46.6170 C   0  0  0  0  0  0  0  0  0  0  0  0
   44.4780   34.8530   46.2850 N   0  0  0  0  0  0  0  0  0  0  0  0
   49.0050   33.0940   40.5050 N   0  0  0  0  0  0  0  0  0  0  0  0
   49.4310   32.1820   38.2240 C   0  0  0  0  0  0  0  0  0  0  0  0
   48.8910   33.1350   39.0960 C   0  0  0  0  0  0  0  0  0  0  0  0
   48.2060   34.1410   38.4520 C   0  0  0  0  0  0  0  0  0  0  0  0
   48.0340   34.2540   37.0940 C   0  0  0  0  0  0  0  0  0  0  0  0
   48.5790   33.2990   36.2760 C   0  0  0  0  0  0  0  0  0  0  0  0
   49.2760   32.2690   36.8650 C   0  0  0  0  0  0  0  0  0  0  0  0
   50.7590   30.2100   39.3140 N   0  0  0  0  0  0  0  0  0  0  0  0
   50.1710   31.0820   38.8200 C   0  0  0  0  0  0  0  0  0  0  0  0
   47.7113   34.9792   42.2704 H   0  0  0  0  0  0  0  0  0  0  0  0
   49.1689   34.2954   42.8898 H   0  0  0  0  0  0  0  0  0  0  0  0
   47.0492   32.9826   41.0514 H   0  0  0  0  0  0  0  0  0  0  0  0
   47.9330   30.8186   41.8884 H   0  0  0  0  0  0  0  0  0  0  0  0
   49.4546   31.5119   42.3933 H   0  0  0  0  0  0  0  0  0  0  0  0
   48.4898   31.8521   44.4904 H   0  0  0  0  0  0  0  0  0  0  0  0
   46.9031   31.3442   43.8928 H   0  0  0  0  0  0  0  0  0  0  0  0
   43.9096   36.2780   44.8038 H   0  0  0  0  0  0  0  0  0  0  0  0
   45.5999   35.4676   43.1598 H   0  0  0  0  0  0  0  0  0  0  0  0
   45.2199   33.3478   47.6055 H   0  0  0  0  0  0  0  0  0  0  0  0
   49.9732   33.1743   40.8470 H   0  0  0  0  0  0  0  0  0  0  0  0
   47.7566   34.9236   39.0809 H   0  0  0  0  0  0  0  0  0  0  0  0
   47.4683   35.0968   36.6701 H   0  0  0  0  0  0  0  0  0  0  0  0
   48.4630   33.3541   35.1835 H   0  0  0  0  0  0  0  0  0  0  0  0
   49.7220   31.4925   36.2262 H   0  0  0  0  0  0  0  0  0  0  0  0
  1  5  1  0
  1  8  1  0
  2  1  1  0
  3  4  1  0
  3  2  1  0
  4  5  1  0
  6 11  2  0
  7  8  2  0
  7  6  1  0
  8  9  1  0
  9 10  2  0
 11 10  1  0
 12  3  1  0
 13 20  1  0
 13 14  2  0
 14 12  1  0
 15 14  1  0
 16 15  2  0
 17 18  2  0
 17 16  1  0
 18 13  1  0
 20 19  3  0
  2 21  1  0
  2 22  1  0
  3 23  1  6
  4 24  1  0
  4 25  1  0
  5 26  1  0
  5 27  1  0
  6 28  1  0
  7 29  1  0
 10 30  1  0
 12 31  1  0
 15 32  1  0
 16 33  1  0
 17 34  1  0
 18 35  1  0
M  ISO  8  21  13  22  13  23  13  24  13  25  13  26  13  27  13  28  14
M  ISO  6  29  14  30  14  32  14  33  14  34  14  35  14
M  END
>  <minimizedAffinity>  (1) 
-4.22259903

>  <minimizedRMSD>  (1) 
3.24544859

$$$$
