
     RDKit          3D

 45 48  0  0  1  0  0  0  0  0999 V2000
   48.6510   33.4640   38.9450 N   0  0  0  0  0  0  0  0  0  0  0  0
   47.5900   34.3610   42.2260 N   0  0  0  0  0  0  0  0  0  0  0  0
   47.6720   34.6970   40.8260 C   0  0  0  0  0  0  0  0  0  0  0  0
   48.1080   33.3620   40.2810 C   0  0  2  0  0  0  0  0  0  0  0  0
   49.2640   33.0520   41.2030 C   0  0  0  0  0  0  0  0  0  0  0  0
   48.7860   33.6170   42.5200 C   0  0  0  0  0  0  0  0  0  0  0  0
   44.7300   35.8820   44.0870 C   0  0  0  0  0  0  0  0  0  0  0  0
   45.6740   35.6770   43.0810 C   0  0  0  0  0  0  0  0  0  0  0  0
   46.6020   34.6520   43.1780 C   0  0  0  0  0  0  0  0  0  0  0  0
   46.5390   33.8640   44.2990 N   0  0  0  0  0  0  0  0  0  0  0  0
   45.6220   34.0670   45.2700 C   0  0  0  0  0  0  0  0  0  0  0  0
   44.7240   35.0690   45.1630 N   0  0  0  0  0  0  0  0  0  0  0  0
   49.0690   32.1220   36.8880 C   0  0  0  0  0  0  0  0  0  0  0  0
   48.2370   32.8910   37.7220 C   0  0  0  0  0  0  0  0  0  0  0  0
   46.9670   33.0430   37.2400 C   0  0  0  0  0  0  0  0  0  0  0  0
   46.4880   32.5190   36.0640 C   0  0  0  0  0  0  0  0  0  0  0  0
   47.3290   31.7740   35.2760 C   0  0  0  0  0  0  0  0  0  0  0  0
   48.6230   31.5890   35.7120 C   0  0  0  0  0  0  0  0  0  0  0  0
   49.4640   33.0950   33.2740 Cl  0  0  0  0  0  0  0  0  0  0  0  0
   49.9070   31.4560   33.6910 C   0  0  0  0  0  0  0  0  0  0  0  0
   49.4860   30.7920   34.8480 C   0  0  0  0  0  0  0  0  0  0  0  0
   49.9080   29.4940   35.0590 C   0  0  0  0  0  0  0  0  0  0  0  0
   50.7230   28.8690   34.1550 C   0  0  0  0  0  0  0  0  0  0  0  0
   51.1330   29.5260   33.0190 C   0  0  0  0  0  0  0  0  0  0  0  0
   50.7240   30.8290   32.7820 C   0  0  0  0  0  0  0  0  0  0  0  0
   51.5320   31.7660   37.6750 N   0  0  0  0  0  0  0  0  0  0  0  0
   50.4330   31.9140   37.3250 C   0  0  0  0  0  0  0  0  0  0  0  0
   49.4879   34.0600   38.8720 H   0  0  0  0  0  0  0  0  0  0  0  0
   46.6983   35.0088   40.4201 H   0  0  0  0  0  0  0  0  0  0  0  0
   48.3323   35.5426   40.5831 H   0  0  0  0  0  0  0  0  0  0  0  0
   47.2841   32.6346   40.2346 H   0  0  0  0  0  0  0  0  0  0  0  0
   49.4373   31.9681   41.2740 H   0  0  0  0  0  0  0  0  0  0  0  0
   50.2222   33.4733   40.8649 H   0  0  0  0  0  0  0  0  0  0  0  0
   49.5511   34.2794   42.9511 H   0  0  0  0  0  0  0  0  0  0  0  0
   48.5925   32.8193   43.2523 H   0  0  0  0  0  0  0  0  0  0  0  0
   43.9977   36.6986   44.0036 H   0  0  0  0  0  0  0  0  0  0  0  0
   45.6822   36.3363   42.2005 H   0  0  0  0  0  0  0  0  0  0  0  0
   45.6071   33.4116   46.1533 H   0  0  0  0  0  0  0  0  0  0  0  0
   46.2675   33.6367   37.8468 H   0  0  0  0  0  0  0  0  0  0  0  0
   45.4459   32.6940   35.7585 H   0  0  0  0  0  0  0  0  0  0  0  0
   46.9815   31.3388   34.3274 H   0  0  0  0  0  0  0  0  0  0  0  0
   49.5855   28.9570   35.9633 H   0  0  0  0  0  0  0  0  0  0  0  0
   51.0519   27.8354   34.3381 H   0  0  0  0  0  0  0  0  0  0  0  0
   51.7873   29.0163   32.2964 H   0  0  0  0  0  0  0  0  0  0  0  0
   51.0509   31.3565   31.8737 H   0  0  0  0  0  0  0  0  0  0  0  0
  1  4  1  0
  2  6  1  0
  2  9  1  0
  3  2  1  0
  4  3  1  0
  4  5  1  0
  5  6  1  0
  7 12  2  0
  8  9  2  0
  8  7  1  0
  9 10  1  0
 10 11  2  0
 12 11  1  0
 13 27  1  0
 13 14  2  0
 14  1  1  0
 15 14  1  0
 16 15  2  0
 17 18  2  0
 17 16  1  0
 18 13  1  0
 19 20  1  0
 20 21  2  0
 21 22  1  0
 21 18  1  0
 23 22  2  0
 24 23  1  0
 25 24  2  0
 25 20  1  0
 27 26  3  0
  1 28  1  0
  3 29  1  0
  3 30  1  0
  4 31  1  6
  5 32  1  0
  5 33  1  0
  6 34  1  0
  6 35  1  0
  7 36  1  0
  8 37  1  0
 11 38  1  0
 15 39  1  0
 16 40  1  0
 17 41  1  0
 22 42  1  0
 23 43  1  0
 24 44  1  0
 25 45  1  0
M  ISO  8  29  13  30  13  31  13  32  13  33  13  34  13  35  13  36  14
M  ISO  8  37  14  38  14  39  14  40  14  41  14  42  14  43  14  44  14
M  ISO  1  45  14
M  END
>  <minimizedAffinity>  (1) 
-5.30467844

>  <minimizedRMSD>  (1) 
1.61889195

$$$$
