
     RDKit          3D

 49 52  0  0  1  0  0  0  0  0999 V2000
   48.8220   32.3970   40.2960 N   0  0  0  0  0  0  0  0  0  0  0  0
   47.2810   33.3680   43.3500 N   0  0  0  0  0  0  0  0  0  0  0  0
   48.0320   33.7440   42.1800 C   0  0  0  0  0  0  0  0  0  0  0  0
   47.8770   32.4790   41.3780 C   0  0  2  0  0  0  0  0  0  0  0  0
   48.3090   31.4530   42.4200 C   0  0  0  0  0  0  0  0  0  0  0  0
   47.7100   32.0220   43.6850 C   0  0  0  0  0  0  0  0  0  0  0  0
   44.6750   35.7790   44.4520 C   0  0  0  0  0  0  0  0  0  0  0  0
   45.6040   35.1680   43.6300 C   0  0  0  0  0  0  0  0  0  0  0  0
   46.3160   34.0680   44.0900 C   0  0  0  0  0  0  0  0  0  0  0  0
   46.0430   33.6550   45.3560 N   0  0  0  0  0  0  0  0  0  0  0  0
   45.1480   34.2330   46.1670 C   0  0  0  0  0  0  0  0  0  0  0  0
   44.4570   35.3090   45.7040 N   0  0  0  0  0  0  0  0  0  0  0  0
   49.0110   31.8460   37.8700 C   0  0  0  0  0  0  0  0  0  0  0  0
   48.7140   32.7170   38.9270 C   0  0  0  0  0  0  0  0  0  0  0  0
   48.2960   33.9550   38.5120 C   0  0  0  0  0  0  0  0  0  0  0  0
   48.1610   34.3540   37.2000 C   0  0  0  0  0  0  0  0  0  0  0  0
   48.4590   33.4750   36.2030 C   0  0  0  0  0  0  0  0  0  0  0  0
   48.8850   32.2200   36.5560 C   0  0  0  0  0  0  0  0  0  0  0  0
   49.2240   31.2220   35.5860 N   0  0  0  0  0  0  0  0  0  0  0  0
   50.5470   30.8920   35.0850 C   0  0  0  0  0  0  0  0  0  0  0  0
   50.5260   31.0920   33.5900 C   0  0  0  0  0  0  0  0  0  0  0  0
   49.5630   30.2050   32.9920 N   0  0  0  0  0  0  0  0  0  0  0  0
   48.2510   30.5780   33.4840 C   0  0  0  0  0  0  0  0  0  0  0  0
   48.2160   30.4060   34.9840 C   0  0  0  0  0  0  0  0  0  0  0  0
   49.8250   29.4430   38.5240 N   0  0  0  0  0  0  0  0  0  0  0  0
   49.4660   30.5010   38.2280 C   0  0  0  0  0  0  0  0  0  0  0  0
   49.7473   32.0387   40.5723 H   0  0  0  0  0  0  0  0  0  0  0  0
   47.5905   34.6122   41.6688 H   0  0  0  0  0  0  0  0  0  0  0  0
   49.0691   34.0593   42.3670 H   0  0  0  0  0  0  0  0  0  0  0  0
   46.8766   32.3733   40.9329 H   0  0  0  0  0  0  0  0  0  0  0  0
   47.8983   30.4575   42.1955 H   0  0  0  0  0  0  0  0  0  0  0  0
   49.3976   31.3036   42.4719 H   0  0  0  0  0  0  0  0  0  0  0  0
   48.4626   32.0484   44.4868 H   0  0  0  0  0  0  0  0  0  0  0  0
   46.8717   31.4086   44.0470 H   0  0  0  0  0  0  0  0  0  0  0  0
   44.1106   36.6502   44.0880 H   0  0  0  0  0  0  0  0  0  0  0  0
   45.7786   35.5523   42.6142 H   0  0  0  0  0  0  0  0  0  0  0  0
   44.9759   33.8471   47.1826 H   0  0  0  0  0  0  0  0  0  0  0  0
   48.0478   34.6909   39.2910 H   0  0  0  0  0  0  0  0  0  0  0  0
   47.8165   35.3708   36.9605 H   0  0  0  0  0  0  0  0  0  0  0  0
   48.3609   33.7632   35.1460 H   0  0  0  0  0  0  0  0  0  0  0  0
   51.2979   31.5531   35.5423 H   0  0  0  0  0  0  0  0  0  0  0  0
   50.8087   29.8531   35.3342 H   0  0  0  0  0  0  0  0  0  0  0  0
   50.2522   32.1333   33.3649 H   0  0  0  0  0  0  0  0  0  0  0  0
   51.5234   30.8737   33.1807 H   0  0  0  0  0  0  0  0  0  0  0  0
   49.7723   29.2316   33.2556 H   0  0  0  0  0  0  0  0  0  0  0  0
   48.0475   31.6286   33.2293 H   0  0  0  0  0  0  0  0  0  0  0  0
   47.4865   29.9372   33.0205 H   0  0  0  0  0  0  0  0  0  0  0  0
   47.2280   30.7057   35.3635 H   0  0  0  0  0  0  0  0  0  0  0  0
   48.4033   29.3514   35.2343 H   0  0  0  0  0  0  0  0  0  0  0  0
  1  4  1  0
  2  6  1  0
  2  9  1  0
  3  2  1  0
  4  3  1  0
  4  5  1  0
  5  6  1  0
  7 12  2  0
  8  9  2  0
  8  7  1  0
  9 10  1  0
 10 11  2  0
 12 11  1  0
 13 26  1  0
 13 14  2  0
 14  1  1  0
 15 14  1  0
 16 15  2  0
 17 18  2  0
 17 16  1  0
 18 13  1  0
 19 18  1  0
 20 19  1  0
 21 20  1  0
 22 23  1  0
 22 21  1  0
 23 24  1  0
 24 19  1  0
 26 25  3  0
  1 27  1  0
  3 28  1  0
  3 29  1  0
  4 30  1  6
  5 31  1  0
  5 32  1  0
  6 33  1  0
  6 34  1  0
  7 35  1  0
  8 36  1  0
 11 37  1  0
 15 38  1  0
 16 39  1  0
 17 40  1  0
 20 41  1  0
 20 42  1  0
 21 43  1  0
 21 44  1  0
 22 45  1  0
 23 46  1  0
 23 47  1  0
 24 48  1  0
 24 49  1  0
M  ISO  8  28  13  29  13  30  13  31  13  32  13  33  13  34  13  35  14
M  ISO  8  36  14  37  14  38  14  39  14  40  14  41  13  42  13  43  13
M  ISO  6  44  13  45   5  46  13  47  13  48  13  49  13
M  END
>  <minimizedAffinity>  (1) 
-4.85494852

>  <minimizedRMSD>  (1) 
1.37969506

$$$$
