
     RDKit          3D

 38 40  0  0  1  0  0  0  0  0999 V2000
   47.3830   33.6030   43.3040 N   0  0  0  0  0  0  0  0  0  0  0  0
   48.1360   34.1620   42.1930 C   0  0  0  0  0  0  0  0  0  0  0  0
   48.0680   32.9960   41.2560 C   0  0  2  0  0  0  0  0  0  0  0  0
   48.4970   31.8660   42.1740 C   0  0  0  0  0  0  0  0  0  0  0  0
   47.8690   32.2620   43.4880 C   0  0  0  0  0  0  0  0  0  0  0  0
   44.6040   35.7320   44.5750 C   0  0  0  0  0  0  0  0  0  0  0  0
   45.5680   35.2480   43.6990 C   0  0  0  0  0  0  0  0  0  0  0  0
   46.3710   34.1920   44.0900 C   0  0  0  0  0  0  0  0  0  0  0  0
   46.1630   33.6830   45.3360 N   0  0  0  0  0  0  0  0  0  0  0  0
   45.2350   34.1480   46.1840 C   0  0  0  0  0  0  0  0  0  0  0  0
   44.4460   35.1860   45.7980 N   0  0  0  0  0  0  0  0  0  0  0  0
   49.0570   33.0770   40.2030 N   0  0  0  0  0  0  0  0  0  0  0  0
   49.5150   32.1030   37.9470 C   0  0  0  0  0  0  0  0  0  0  0  0
   48.9170   33.0520   38.7960 C   0  0  0  0  0  0  0  0  0  0  0  0
   48.1660   33.9790   38.1210 C   0  0  0  0  0  0  0  0  0  0  0  0
   47.9770   34.0270   36.7550 C   0  0  0  0  0  0  0  0  0  0  0  0
   48.5820   33.0780   35.9690 C   0  0  0  0  0  0  0  0  0  0  0  0
   49.3460   32.1290   36.5970 C   0  0  0  0  0  0  0  0  0  0  0  0
   50.0440   31.0520   35.8180 C   0  0  0  0  0  0  0  0  0  0  0  0
   49.7930   31.3210   34.4820 F   0  0  0  0  0  0  0  0  0  0  0  0
   51.3910   31.1490   36.0210 F   0  0  0  0  0  0  0  0  0  0  0  0
   49.5210   29.8080   36.1460 F   0  0  0  0  0  0  0  0  0  0  0  0
   50.9720   30.2610   39.0990 N   0  0  0  0  0  0  0  0  0  0  0  0
   50.3370   31.0760   38.5850 C   0  0  0  0  0  0  0  0  0  0  0  0
   47.6515   35.0565   41.7746 H   0  0  0  0  0  0  0  0  0  0  0  0
   49.1488   34.5151   42.4372 H   0  0  0  0  0  0  0  0  0  0  0  0
   47.0861   32.9085   40.7679 H   0  0  0  0  0  0  0  0  0  0  0  0
   48.1090   30.8985   41.8228 H   0  0  0  0  0  0  0  0  0  0  0  0
   49.5876   31.7339   42.2295 H   0  0  0  0  0  0  0  0  0  0  0  0
   48.6173   32.2333   44.2938 H   0  0  0  0  0  0  0  0  0  0  0  0
   47.0590   31.5742   43.7722 H   0  0  0  0  0  0  0  0  0  0  0  0
   43.9620   36.5706   44.2672 H   0  0  0  0  0  0  0  0  0  0  0  0
   45.6913   35.7005   42.7040 H   0  0  0  0  0  0  0  0  0  0  0  0
   45.1133   33.6958   47.1793 H   0  0  0  0  0  0  0  0  0  0  0  0
   50.0279   33.1684   40.5345 H   0  0  0  0  0  0  0  0  0  0  0  0
   47.6692   34.7545   38.7225 H   0  0  0  0  0  0  0  0  0  0  0  0
   47.3524   34.8120   36.3037 H   0  0  0  0  0  0  0  0  0  0  0  0
   48.4583   33.0791   34.8760 H   0  0  0  0  0  0  0  0  0  0  0  0
  1  5  1  0
  1  8  1  0
  2  1  1  0
  3  4  1  0
  3  2  1  0
  4  5  1  0
  6 11  2  0
  7  8  2  0
  7  6  1  0
  8  9  1  0
  9 10  2  0
 11 10  1  0
 12  3  1  0
 13 24  1  0
 13 14  2  0
 14 12  1  0
 15 14  1  0
 16 15  2  0
 17 18  2  0
 17 16  1  0
 18 13  1  0
 19 21  1  0
 19 22  1  0
 19 18  1  0
 20 19  1  0
 24 23  3  0
  2 25  1  0
  2 26  1  0
  3 27  1  6
  4 28  1  0
  4 29  1  0
  5 30  1  0
  5 31  1  0
  6 32  1  0
  7 33  1  0
 10 34  1  0
 12 35  1  0
 15 36  1  0
 16 37  1  0
 17 38  1  0
M  ISO  8  25  13  26  13  27  13  28  13  29  13  30  13  31  13  32  14
M  ISO  5  33  14  34  14  36  14  37  14  38  14
M  END
>  <minimizedAffinity>  (1) 
-4.57882071

>  <minimizedRMSD>  (1) 
0.527506709

$$$$
