
     RDKit          3D

 54 58  0  0  1  0  0  0  0  0999 V2000
   49.2820   32.0770   37.0210 C   0  0  0  0  0  0  0  0  0  0  0  0
   48.4040   32.8880   37.7610 C   0  0  0  0  0  0  0  0  0  0  0  0
   47.1800   33.0320   37.1770 C   0  0  0  0  0  0  0  0  0  0  0  0
   46.7630   32.4810   35.9950 C   0  0  0  0  0  0  0  0  0  0  0  0
   47.6550   31.6930   35.3020 C   0  0  0  0  0  0  0  0  0  0  0  0
   48.9080   31.5020   35.8300 C   0  0  0  0  0  0  0  0  0  0  0  0
   50.2870   31.1410   33.8420 C   0  0  0  0  0  0  0  0  0  0  0  0
   49.9720   32.2910   33.4140 O   0  0  0  0  0  0  0  0  0  0  0  0
   49.8190   30.6780   35.0920 N   0  0  0  0  0  0  0  0  0  0  0  0
   51.1500   30.3430   32.9720 C   0  0  0  0  0  0  0  0  0  0  0  0
   50.6030   29.2700   32.3080 C   0  0  0  0  0  0  0  0  0  0  0  0
   51.3770   28.4690   31.4630 C   0  0  0  0  0  0  0  0  0  0  0  0
   52.7200   28.7520   31.2840 C   0  0  0  0  0  0  0  0  0  0  0  0
   53.4330   27.9590   30.4630 N   0  0  0  0  0  0  0  0  0  0  0  0
   54.7610   28.1810   30.2420 C   0  0  0  0  0  0  0  0  0  0  0  0
   55.3460   29.2490   30.8930 C   0  0  0  0  0  0  0  0  0  0  0  0
   54.6140   30.0800   31.7480 C   0  0  0  0  0  0  0  0  0  0  0  0
   53.2600   29.8350   31.9580 C   0  0  0  0  0  0  0  0  0  0  0  0
   52.4890   30.6220   32.7930 C   0  0  0  0  0  0  0  0  0  0  0  0
   48.7420   33.4960   38.9830 N   0  0  0  0  0  0  0  0  0  0  0  0
   47.6260   34.3660   42.2470 N   0  0  0  0  0  0  0  0  0  0  0  0
   47.7420   34.7390   40.8520 C   0  0  0  0  0  0  0  0  0  0  0  0
   48.1890   33.4150   40.2940 C   0  0  2  0  0  0  0  0  0  0  0  0
   49.3040   33.0340   41.2450 C   0  0  0  0  0  0  0  0  0  0  0  0
   48.7950   33.5940   42.5550 C   0  0  0  0  0  0  0  0  0  0  0  0
   44.7410   35.8650   44.0680 C   0  0  0  0  0  0  0  0  0  0  0  0
   45.6900   35.6730   43.0760 C   0  0  0  0  0  0  0  0  0  0  0  0
   46.6280   34.6410   43.1940 C   0  0  0  0  0  0  0  0  0  0  0  0
   46.5460   33.8670   44.3090 N   0  0  0  0  0  0  0  0  0  0  0  0
   45.6280   34.0520   45.2690 C   0  0  0  0  0  0  0  0  0  0  0  0
   44.7210   35.0610   45.1390 N   0  0  0  0  0  0  0  0  0  0  0  0
   51.6710   31.6940   38.0000 N   0  0  0  0  0  0  0  0  0  0  0  0
   50.6180   31.8650   37.5700 C   0  0  0  0  0  0  0  0  0  0  0  0
   46.4503   33.6572   37.7124 H   0  0  0  0  0  0  0  0  0  0  0  0
   45.7481   32.6619   35.6112 H   0  0  0  0  0  0  0  0  0  0  0  0
   47.3700   31.2272   34.3471 H   0  0  0  0  0  0  0  0  0  0  0  0
   50.1259   29.7681   35.4647 H   0  0  0  0  0  0  0  0  0  0  0  0
   49.5365   29.0376   32.4443 H   0  0  0  0  0  0  0  0  0  0  0  0
   50.9195   27.6154   30.9414 H   0  0  0  0  0  0  0  0  0  0  0  0
   55.3438   27.5334   29.5704 H   0  0  0  0  0  0  0  0  0  0  0  0
   56.4156   29.4518   30.7352 H   0  0  0  0  0  0  0  0  0  0  0  0
   55.1068   30.9241   32.2526 H   0  0  0  0  0  0  0  0  0  0  0  0
   52.9454   31.4747   33.3171 H   0  0  0  0  0  0  0  0  0  0  0  0
   49.5531   34.1275   38.9174 H   0  0  0  0  0  0  0  0  0  0  0  0
   46.7790   35.0614   40.4293 H   0  0  0  0  0  0  0  0  0  0  0  0
   48.4061   35.5905   40.6424 H   0  0  0  0  0  0  0  0  0  0  0  0
   47.3441   32.7153   40.2133 H   0  0  0  0  0  0  0  0  0  0  0  0
   49.4306   31.9426   41.2977 H   0  0  0  0  0  0  0  0  0  0  0  0
   50.2924   33.4163   40.9501 H   0  0  0  0  0  0  0  0  0  0  0  0
   49.5612   34.2341   43.0168 H   0  0  0  0  0  0  0  0  0  0  0  0
   48.5606   32.7876   43.2655 H   0  0  0  0  0  0  0  0  0  0  0  0
   44.0049   36.6771   43.9756 H   0  0  0  0  0  0  0  0  0  0  0  0
   45.7059   36.3322   42.1955 H   0  0  0  0  0  0  0  0  0  0  0  0
   45.6073   33.3963   46.1520 H   0  0  0  0  0  0  0  0  0  0  0  0
  1 33  1  0
  1  2  2  0
  2 20  1  0
  3  2  1  0
  4  3  2  0
  5  6  2  0
  5  4  1  0
  6  1  1  0
  7  9  1  0
  8  7  2  0
  9  6  1  0
 10  7  1  0
 11 10  2  0
 12 11  1  0
 13 12  2  0
 13 18  1  0
 14 13  1  0
 15 14  2  0
 15 16  1  0
 16 17  2  0
 17 18  1  0
 18 19  2  0
 19 10  1  0
 20 23  1  0
 21 25  1  0
 21 28  1  0
 22 21  1  0
 23 22  1  0
 23 24  1  0
 24 25  1  0
 26 31  2  0
 27 28  2  0
 27 26  1  0
 28 29  1  0
 29 30  2  0
 31 30  1  0
 33 32  3  0
  3 34  1  0
  4 35  1  0
  5 36  1  0
  9 37  1  0
 11 38  1  0
 12 39  1  0
 15 40  1  0
 16 41  1  0
 17 42  1  0
 19 43  1  0
 20 44  1  0
 22 45  1  0
 22 46  1  0
 23 47  1  6
 24 48  1  0
 24 49  1  0
 25 50  1  0
 25 51  1  0
 26 52  1  0
 27 53  1  0
 30 54  1  0
M  ISO  8  34  14  35  14  36  14  38  14  39  14  40  14  41  14  42  14
M  ISO  8  43  14  45  13  46  13  47  13  48  13  49  13  50  13  51  13
M  ISO  3  52  14  53  14  54  14
M  END
>  <minimizedAffinity>  (1) 
-6.2254405

>  <minimizedRMSD>  (1) 
1.00922751

$$$$
