
     RDKit          3D

 51 54  0  0  1  0  0  0  0  0999 V2000
   48.2030   32.9570   38.5850 N   0  0  0  0  0  0  0  0  0  0  0  0
   47.4770   34.1660   41.8440 N   0  0  0  0  0  0  0  0  0  0  0  0
   47.3390   34.3350   40.4050 C   0  0  0  0  0  0  0  0  0  0  0  0
   47.8490   32.9920   39.9730 C   0  0  2  0  0  0  0  0  0  0  0  0
   49.1360   32.8910   40.7650 C   0  0  0  0  0  0  0  0  0  0  0  0
   48.7650   33.5790   42.0570 C   0  0  0  0  0  0  0  0  0  0  0  0
   44.8640   35.7760   43.9740 C   0  0  0  0  0  0  0  0  0  0  0  0
   45.6960   35.5480   42.8860 C   0  0  0  0  0  0  0  0  0  0  0  0
   46.5920   34.4810   42.8990 C   0  0  0  0  0  0  0  0  0  0  0  0
   46.5980   33.7040   44.0110 N   0  0  0  0  0  0  0  0  0  0  0  0
   45.7980   33.9140   45.0690 C   0  0  0  0  0  0  0  0  0  0  0  0
   44.9350   34.9590   45.0330 N   0  0  0  0  0  0  0  0  0  0  0  0
   47.9510   32.0610   36.2680 C   0  0  0  0  0  0  0  0  0  0  0  0
   47.4560   32.7070   37.4220 C   0  0  0  0  0  0  0  0  0  0  0  0
   46.1410   33.0820   37.3090 C   0  0  0  0  0  0  0  0  0  0  0  0
   45.3280   32.8870   36.2230 C   0  0  0  0  0  0  0  0  0  0  0  0
   45.8630   32.2500   35.1190 C   0  0  0  0  0  0  0  0  0  0  0  0
   47.1740   31.8480   35.1680 C   0  0  0  0  0  0  0  0  0  0  0  0
   48.2040   31.9900   32.9420 C   0  0  0  0  0  0  0  0  0  0  0  0
   48.1660   33.2690   33.0180 O   0  0  0  0  0  0  0  0  0  0  0  0
   47.6760   31.1950   34.0030 N   0  0  0  0  0  0  0  0  0  0  0  0
   48.7820   31.3460   31.7870 N   0  0  0  0  0  0  0  0  0  0  0  0
   48.6900   29.9550   31.3250 C   0  0  0  0  0  0  0  0  0  0  0  0
   48.3890   30.1830   29.8470 C   0  0  0  0  0  0  0  0  0  0  0  0
   49.0400   31.5060   29.5070 C   0  0  0  0  0  0  0  0  0  0  0  0
   49.6120   32.0150   30.8130 C   0  0  0  0  0  0  0  0  0  0  0  0
   50.4360   31.2950   36.3260 N   0  0  0  0  0  0  0  0  0  0  0  0
   49.3300   31.6350   36.3110 C   0  0  0  0  0  0  0  0  0  0  0  0
   49.1980   33.1532   38.4052 H   0  0  0  0  0  0  0  0  0  0  0  0
   46.2931   34.4971   40.1052 H   0  0  0  0  0  0  0  0  0  0  0  0
   47.8580   35.2040   39.9743 H   0  0  0  0  0  0  0  0  0  0  0  0
   47.1027   32.1990   40.1286 H   0  0  0  0  0  0  0  0  0  0  0  0
   49.4177   31.8418   40.9376 H   0  0  0  0  0  0  0  0  0  0  0  0
   50.0044   33.3375   40.2585 H   0  0  0  0  0  0  0  0  0  0  0  0
   49.5031   34.3577   42.2994 H   0  0  0  0  0  0  0  0  0  0  0  0
   48.7469   32.8692   42.8971 H   0  0  0  0  0  0  0  0  0  0  0  0
   44.1553   36.6172   43.9663 H   0  0  0  0  0  0  0  0  0  0  0  0
   45.6476   36.2122   42.0105 H   0  0  0  0  0  0  0  0  0  0  0  0
   45.8420   33.2520   45.9464 H   0  0  0  0  0  0  0  0  0  0  0  0
   45.6947   33.5899   38.1767 H   0  0  0  0  0  0  0  0  0  0  0  0
   44.2819   33.2270   36.2297 H   0  0  0  0  0  0  0  0  0  0  0  0
   45.2521   32.0696   34.2222 H   0  0  0  0  0  0  0  0  0  0  0  0
   47.6576   30.1678   33.9291 H   0  0  0  0  0  0  0  0  0  0  0  0
   49.6367   29.4139   31.4696 H   0  0  0  0  0  0  0  0  0  0  0  0
   47.9505   29.3390   31.8576 H   0  0  0  0  0  0  0  0  0  0  0  0
   48.8181   29.3743   29.2371 H   0  0  0  0  0  0  0  0  0  0  0  0
   47.3077   30.1939   29.6454 H   0  0  0  0  0  0  0  0  0  0  0  0
   49.8398   31.3629   28.7655 H   0  0  0  0  0  0  0  0  0  0  0  0
   48.3233   32.2157   29.0680 H   0  0  0  0  0  0  0  0  0  0  0  0
   50.6683   31.7292   30.9247 H   0  0  0  0  0  0  0  0  0  0  0  0
   49.6040   33.1113   30.9026 H   0  0  0  0  0  0  0  0  0  0  0  0
  1  4  1  0
  2  6  1  0
  2  9  1  0
  3  2  1  0
  4  3  1  0
  4  5  1  0
  5  6  1  0
  7 12  2  0
  8  9  2  0
  8  7  1  0
  9 10  1  0
 10 11  2  0
 12 11  1  0
 13 28  1  0
 13 14  2  0
 14  1  1  0
 15 14  1  0
 16 15  2  0
 17 18  2  0
 17 16  1  0
 18 13  1  0
 19 20  2  0
 19 21  1  0
 21 18  1  0
 22 19  1  0
 23 22  1  0
 24 23  1  0
 25 24  1  0
 25 26  1  0
 26 22  1  0
 28 27  3  0
  1 29  1  0
  3 30  1  0
  3 31  1  0
  4 32  1  1
  5 33  1  0
  5 34  1  0
  6 35  1  0
  6 36  1  0
  7 37  1  0
  8 38  1  0
 11 39  1  0
 15 40  1  0
 16 41  1  0
 17 42  1  0
 21 43  1  0
 23 44  1  0
 23 45  1  0
 24 46  1  0
 24 47  1  0
 25 48  1  0
 25 49  1  0
 26 50  1  0
 26 51  1  0
M  ISO  8  30  13  31  13  32  13  33  13  34  13  35  13  36  13  37  14
M  ISO  8  38  14  39  14  40  14  41  14  42  14  44  13  45  13  46  13
M  ISO  5  47  13  48  13  49  13  50  13  51  13
M  END
>  <minimizedAffinity>  (1) 
-5.97743988

>  <minimizedRMSD>  (1) 
1.28561282

$$$$
