
     RDKit          3D

 47 48  0  0  1  0  0  0  0  0999 V2000
   48.5180   33.3740   39.1540 N   0  0  0  0  0  0  0  0  0  0  0  0
   47.4990   34.4520   42.3830 N   0  0  0  0  0  0  0  0  0  0  0  0
   47.4500   34.6750   40.9360 C   0  0  0  0  0  0  0  0  0  0  0  0
   48.0580   33.3740   40.5000 C   0  0  2  0  0  0  0  0  0  0  0  0
   49.2780   33.2700   41.4070 C   0  0  0  0  0  0  0  0  0  0  0  0
   48.7840   33.9050   42.6790 C   0  0  0  0  0  0  0  0  0  0  0  0
   44.6340   35.8360   44.3220 C   0  0  0  0  0  0  0  0  0  0  0  0
   45.5420   35.7170   43.2860 C   0  0  0  0  0  0  0  0  0  0  0  0
   46.5100   34.6990   43.3610 C   0  0  0  0  0  0  0  0  0  0  0  0
   46.4670   33.9130   44.4560 N   0  0  0  0  0  0  0  0  0  0  0  0
   45.5890   34.0230   45.4620 C   0  0  0  0  0  0  0  0  0  0  0  0
   44.6530   35.0190   45.3780 N   0  0  0  0  0  0  0  0  0  0  0  0
   48.5720   32.2650   36.9170 C   0  0  0  0  0  0  0  0  0  0  0  0
   47.9190   32.9720   37.9440 C   0  0  0  0  0  0  0  0  0  0  0  0
   46.6100   33.2480   37.6490 C   0  0  0  0  0  0  0  0  0  0  0  0
   45.9420   32.9080   36.5080 C   0  0  0  0  0  0  0  0  0  0  0  0
   46.6290   32.2160   35.5380 C   0  0  0  0  0  0  0  0  0  0  0  0
   47.9380   31.9130   35.7750 C   0  0  0  0  0  0  0  0  0  0  0  0
   49.1250   31.9000   33.6030 C   0  0  0  0  0  0  0  0  0  0  0  0
   48.9850   33.1820   33.5440 O   0  0  0  0  0  0  0  0  0  0  0  0
   48.6260   31.2080   34.7230 N   0  0  0  0  0  0  0  0  0  0  0  0
   49.7650   31.6270   31.1490 C   0  0  0  0  0  0  0  0  0  0  0  0
   49.0550   32.6830   31.0440 O   0  0  0  0  0  0  0  0  0  0  0  0
   49.7950   31.2040   32.5020 N   0  0  0  0  0  0  0  0  0  0  0  0
   51.0800   31.6750   37.3210 N   0  0  0  0  0  0  0  0  0  0  0  0
   49.9770   31.9280   37.1520 C   0  0  0  0  0  0  0  0  0  0  0  0
   49.4748   33.7387   39.0424 H   0  0  0  0  0  0  0  0  0  0  0  0
   46.4204   34.7970   40.5684 H   0  0  0  0  0  0  0  0  0  0  0  0
   47.9486   35.5854   40.5720 H   0  0  0  0  0  0  0  0  0  0  0  0
   47.3232   32.5577   40.5619 H   0  0  0  0  0  0  0  0  0  0  0  0
   49.5651   32.2208   41.5704 H   0  0  0  0  0  0  0  0  0  0  0  0
   50.1773   33.7505   40.9941 H   0  0  0  0  0  0  0  0  0  0  0  0
   49.4721   34.7013   42.9990 H   0  0  0  0  0  0  0  0  0  0  0  0
   48.7265   33.1703   43.4956 H   0  0  0  0  0  0  0  0  0  0  0  0
   43.8724   36.6283   44.2748 H   0  0  0  0  0  0  0  0  0  0  0  0
   45.5083   36.4009   42.4251 H   0  0  0  0  0  0  0  0  0  0  0  0
   45.6189   33.3390   46.3230 H   0  0  0  0  0  0  0  0  0  0  0  0
   46.0385   33.8002   38.4095 H   0  0  0  0  0  0  0  0  0  0  0  0
   44.8852   33.1795   36.3685 H   0  0  0  0  0  0  0  0  0  0  0  0
   46.1383   31.9162   34.6003 H   0  0  0  0  0  0  0  0  0  0  0  0
   50.2037   31.6911   33.5498 H   0  0  0  0  0  0  0  0  0  0  0  0
   48.5099   31.5297   32.7696 H   0  0  0  0  0  0  0  0  0  0  0  0
   48.9446   33.5521   34.4613 H   0  0  0  0  0  0  0  0  0  0  0  0
   48.7539   30.1882   34.7912 H   0  0  0  0  0  0  0  0  0  0  0  0
   50.2760   31.1219   30.3160 H   0  0  0  0  0  0  0  0  0  0  0  0
   50.3260   30.3620   32.7667 H   0  0  0  0  0  0  0  0  0  0  0  0
   49.2858   31.7387   33.2202 H   0  0  0  0  0  0  0  0  0  0  0  0
  1  4  1  0
  2  6  1  0
  2  9  1  0
  3  2  1  0
  4  3  1  0
  4  5  1  0
  5  6  1  0
  7 12  2  0
  8  9  2  0
  8  7  1  0
  9 10  1  0
 10 11  2  0
 12 11  1  0
 13 26  1  0
 13 14  2  0
 14  1  1  0
 15 14  1  0
 16 15  2  0
 17 18  2  0
 17 16  1  0
 18 13  1  0
 19 21  1  0
 20 19  1  0
 21 18  1  0
 22 24  1  0
 23 22  2  0
 26 25  3  0
  1 27  1  0
  3 28  1  0
  3 29  1  0
  4 30  1  6
  5 31  1  0
  5 32  1  0
  6 33  1  0
  6 34  1  0
  7 35  1  0
  8 36  1  0
 11 37  1  0
 15 38  1  0
 16 39  1  0
 17 40  1  0
 19 41  1  0
 19 42  1  0
 20 43  1  0
 21 44  1  0
 22 45  1  0
 24 46  1  0
 24 47  1  0
M  ISO  8  28  13  29  13  30  13  31  13  32  13  33  13  34  13  35  14
M  ISO  8  36  14  37  14  38  14  39  14  40  14  41   8  42   8  43   3
M  ISO  1  45   6
M  END
>  <minimizedAffinity>  (1) 
-5.69991875

>  <minimizedRMSD>  (1) 
0.294621825

$$$$
