
     RDKit          3D

 49 52  0  0  1  0  0  0  0  0999 V2000
   48.8630   32.2390   37.1530 C   0  0  0  0  0  0  0  0  0  0  0  0
   48.1060   33.0390   38.0320 C   0  0  0  0  0  0  0  0  0  0  0  0
   46.8210   33.2500   37.5930 C   0  0  0  0  0  0  0  0  0  0  0  0
   46.2600   32.7690   36.4400 C   0  0  0  0  0  0  0  0  0  0  0  0
   47.0390   31.9910   35.6110 C   0  0  0  0  0  0  0  0  0  0  0  0
   48.3320   31.7420   35.9900 C   0  0  0  0  0  0  0  0  0  0  0  0
   49.6310   31.4850   33.9170 C   0  0  0  0  0  0  0  0  0  0  0  0
   49.4070   32.7240   33.6590 O   0  0  0  0  0  0  0  0  0  0  0  0
   49.1120   30.9320   35.1090 N   0  0  0  0  0  0  0  0  0  0  0  0
   50.4110   30.6680   32.9890 C   0  0  0  0  0  0  0  0  0  0  0  0
   49.9000   29.8640   31.9890 C   0  0  0  0  0  0  0  0  0  0  0  0
   50.7340   29.1340   31.1650 C   0  0  0  0  0  0  0  0  0  0  0  0
   52.1030   29.1910   31.3250 C   0  0  0  0  0  0  0  0  0  0  0  0
   52.6790   29.9730   32.3030 C   0  0  0  0  0  0  0  0  0  0  0  0
   51.7930   30.6780   33.0900 C   0  0  0  0  0  0  0  0  0  0  0  0
   48.5960   33.5750   39.2350 N   0  0  0  0  0  0  0  0  0  0  0  0
   47.4830   34.5340   42.4710 N   0  0  0  0  0  0  0  0  0  0  0  0
   47.4650   34.7920   41.0360 C   0  0  0  0  0  0  0  0  0  0  0  0
   48.0960   33.5100   40.5750 C   0  0  2  0  0  0  0  0  0  0  0  0
   49.2970   33.4000   41.4980 C   0  0  0  0  0  0  0  0  0  0  0  0
   48.7770   33.9850   42.7820 C   0  0  0  0  0  0  0  0  0  0  0  0
   44.5710   35.8440   44.3880 C   0  0  0  0  0  0  0  0  0  0  0  0
   45.5080   35.7310   43.3680 C   0  0  0  0  0  0  0  0  0  0  0  0
   46.4850   34.7460   43.4380 C   0  0  0  0  0  0  0  0  0  0  0  0
   46.4470   33.9410   44.5360 N   0  0  0  0  0  0  0  0  0  0  0  0
   45.5550   34.0400   45.5190 C   0  0  0  0  0  0  0  0  0  0  0  0
   44.6090   35.0020   45.4410 N   0  0  0  0  0  0  0  0  0  0  0  0
   51.3200   31.7310   37.8350 N   0  0  0  0  0  0  0  0  0  0  0  0
   50.2340   31.9630   37.5370 C   0  0  0  0  0  0  0  0  0  0  0  0
   46.1763   33.8693   38.2340 H   0  0  0  0  0  0  0  0  0  0  0  0
   45.2153   32.9976   36.1824 H   0  0  0  0  0  0  0  0  0  0  0  0
   46.6349   31.5822   34.6732 H   0  0  0  0  0  0  0  0  0  0  0  0
   49.2958   29.9458   35.3426 H   0  0  0  0  0  0  0  0  0  0  0  0
   48.8109   29.8041   31.8465 H   0  0  0  0  0  0  0  0  0  0  0  0
   50.3031   28.5019   30.3746 H   0  0  0  0  0  0  0  0  0  0  0  0
   52.7483   28.6001   30.6583 H   0  0  0  0  0  0  0  0  0  0  0  0
   53.7682   30.0306   32.4456 H   0  0  0  0  0  0  0  0  0  0  0  0
   52.2269   31.3121   33.8772 H   0  0  0  0  0  0  0  0  0  0  0  0
   49.4705   34.1098   39.1350 H   0  0  0  0  0  0  0  0  0  0  0  0
   46.4426   34.9139   40.6490 H   0  0  0  0  0  0  0  0  0  0  0  0
   47.9641   35.7161   40.7092 H   0  0  0  0  0  0  0  0  0  0  0  0
   47.3739   32.6805   40.5962 H   0  0  0  0  0  0  0  0  0  0  0  0
   49.5995   32.3511   41.6331 H   0  0  0  0  0  0  0  0  0  0  0  0
   50.1923   33.9113   41.1147 H   0  0  0  0  0  0  0  0  0  0  0  0
   49.4513   34.7757   43.1427 H   0  0  0  0  0  0  0  0  0  0  0  0
   48.7130   33.2251   43.5748 H   0  0  0  0  0  0  0  0  0  0  0  0
   43.7958   36.6227   44.3365 H   0  0  0  0  0  0  0  0  0  0  0  0
   45.4762   36.4180   42.5095 H   0  0  0  0  0  0  0  0  0  0  0  0
   45.5872   33.3528   46.3773 H   0  0  0  0  0  0  0  0  0  0  0  0
  1 29  1  0
  1  2  2  0
  2 16  1  0
  3  2  1  0
  4  3  2  0
  5  6  2  0
  5  4  1  0
  6  1  1  0
  7  9  1  0
  8  7  2  0
  9  6  1  0
 10 15  1  0
 10  7  1  0
 11 10  2  0
 12 13  2  0
 12 11  1  0
 13 14  1  0
 14 15  2  0
 16 19  1  0
 17 21  1  0
 17 24  1  0
 18 17  1  0
 19 18  1  0
 19 20  1  0
 20 21  1  0
 22 27  2  0
 23 24  2  0
 23 22  1  0
 24 25  1  0
 25 26  2  0
 27 26  1  0
 29 28  3  0
  3 30  1  0
  4 31  1  0
  5 32  1  0
  9 33  1  0
 11 34  1  0
 12 35  1  0
 13 36  1  0
 14 37  1  0
 15 38  1  0
 16 39  1  0
 18 40  1  0
 18 41  1  0
 19 42  1  6
 20 43  1  0
 20 44  1  0
 21 45  1  0
 21 46  1  0
 22 47  1  0
 23 48  1  0
 26 49  1  0
M  ISO  8  30  14  31  14  32  14  34  14  35  14  36  14  37  14  38  14
M  ISO  8  40  13  41  13  42  13  43  13  44  13  45  13  46  13  47  14
M  ISO  2  48  14  49  14
M  END
>  <minimizedAffinity>  (1) 
-5.61506271

>  <minimizedRMSD>  (1) 
0.295312613

$$$$
