
     RDKit          3D

 26 27  0  0  0  0  0  0  0  0999 V2000
   48.1490   35.2800   41.8830 C   0  0  0  0  0  0  0  0  0  0  0  0
   49.0880   34.1800   41.6790 C   0  0  0  0  0  0  0  0  0  0  0  0
   48.8650   33.1890   40.7360 C   0  0  0  0  0  0  0  0  0  0  0  0
   49.7830   32.1450   40.5600 C   0  0  0  0  0  0  0  0  0  0  0  0
   50.8760   32.1800   41.3640 N   0  0  0  0  0  0  0  0  0  0  0  0
   51.0830   33.1530   42.2830 C   0  0  0  0  0  0  0  0  0  0  0  0
   50.1980   34.1490   42.4430 N   0  0  0  0  0  0  0  0  0  0  0  0
   46.7440   34.7370   41.9110 C   0  0  0  0  0  0  0  0  0  0  0  0
   44.6300   36.6720   42.7560 Cl  0  0  0  0  0  0  0  0  0  0  0  0
   45.2360   35.4080   43.7960 C   0  0  0  0  0  0  0  0  0  0  0  0
   46.2140   34.5750   43.2930 C   0  0  0  0  0  0  0  0  0  0  0  0
   46.6990   33.5710   44.1140 C   0  0  0  0  0  0  0  0  0  0  0  0
   46.2120   33.4090   45.4060 C   0  0  0  0  0  0  0  0  0  0  0  0
   45.2210   34.2590   45.9080 C   0  0  0  0  0  0  0  0  0  0  0  0
   44.7510   35.2520   45.0760 C   0  0  0  0  0  0  0  0  0  0  0  0
   48.2468   36.0038   41.0605 H   0  0  0  0  0  0  0  0  0  0  0  0
   48.3696   35.7804   42.8374 H   0  0  0  0  0  0  0  0  0  0  0  0
   47.9557   33.2225   40.1178 H   0  0  0  0  0  0  0  0  0  0  0  0
   49.6278   31.3481   39.8178 H   0  0  0  0  0  0  0  0  0  0  0  0
   51.9887   33.1265   42.9067 H   0  0  0  0  0  0  0  0  0  0  0  0
   46.0888   35.4297   41.3625 H   0  0  0  0  0  0  0  0  0  0  0  0
   46.7655   33.7402   41.4462 H   0  0  0  0  0  0  0  0  0  0  0  0
   47.4797   32.8928   43.7391 H   0  0  0  0  0  0  0  0  0  0  0  0
   46.6104   32.6035   46.0405 H   0  0  0  0  0  0  0  0  0  0  0  0
   44.8311   34.1392   46.9296 H   0  0  0  0  0  0  0  0  0  0  0  0
   43.9709   35.9356   45.4422 H   0  0  0  0  0  0  0  0  0  0  0  0
  1  8  1  0
  2  1  1  0
  2  7  1  0
  3  2  2  0
  4  3  1  0
  4  5  2  0
  5  6  1  0
  6  7  2  0
  8 11  1  0
  9 10  1  0
 10 15  2  0
 11 10  1  0
 11 12  2  0
 12 13  1  0
 13 14  2  0
 15 14  1  0
  1 16  1  0
  1 17  1  0
  3 18  1  0
  4 19  1  0
  6 20  1  0
  8 21  1  0
  8 22  1  0
 12 23  1  0
 13 24  1  0
 14 25  1  0
 15 26  1  0
M  ISO  8  16   8  17   8  18  14  19  14  20  14  21   8  22   8  23  14
M  ISO  3  24  14  25  14  26  14
M  END
>  <minimizedAffinity>  (1) 
-4.59113789

>  <minimizedRMSD>  (1) 
6.09352827

$$$$
