
     RDKit          3D

 28 29  0  0  0  0  0  0  0  0999 V2000
   46.5500   34.5780   42.0250 C   0  0  0  0  0  0  0  0  0  0  0  0
   44.8150   36.4140   43.6070 Cl  0  0  0  0  0  0  0  0  0  0  0  0
   45.4820   34.9300   44.2690 C   0  0  0  0  0  0  0  0  0  0  0  0
   46.2710   34.1660   43.4390 C   0  0  0  0  0  0  0  0  0  0  0  0
   46.7990   33.0010   43.9420 C   0  0  0  0  0  0  0  0  0  0  0  0
   46.5410   32.6160   45.2480 C   0  0  0  0  0  0  0  0  0  0  0  0
   45.7330   33.4080   46.0830 C   0  0  0  0  0  0  0  0  0  0  0  0
   45.2180   34.5620   45.5590 C   0  0  0  0  0  0  0  0  0  0  0  0
   44.3910   35.4020   46.3670 N   0  0  0  0  0  0  0  0  0  0  0  0
   47.8910   35.2160   41.8450 C   0  0  0  0  0  0  0  0  0  0  0  0
   48.9310   34.2150   41.7010 C   0  0  0  0  0  0  0  0  0  0  0  0
   48.8140   33.2040   40.7740 C   0  0  0  0  0  0  0  0  0  0  0  0
   49.7910   32.2150   40.6010 C   0  0  0  0  0  0  0  0  0  0  0  0
   50.8700   32.3410   41.4330 N   0  0  0  0  0  0  0  0  0  0  0  0
   50.9830   33.3280   42.3380 C   0  0  0  0  0  0  0  0  0  0  0  0
   50.0240   34.2560   42.4720 N   0  0  0  0  0  0  0  0  0  0  0  0
   46.5004   33.6845   41.3854 H   0  0  0  0  0  0  0  0  0  0  0  0
   45.7942   35.3286   41.7506 H   0  0  0  0  0  0  0  0  0  0  0  0
   47.4320   32.3686   43.3022 H   0  0  0  0  0  0  0  0  0  0  0  0
   46.9727   31.6813   45.6354 H   0  0  0  0  0  0  0  0  0  0  0  0
   45.5225   33.1102   47.1208 H   0  0  0  0  0  0  0  0  0  0  0  0
   44.1836   35.1375   47.3406 H   0  0  0  0  0  0  0  0  0  0  0  0
   44.0024   36.2719   45.9757 H   0  0  0  0  0  0  0  0  0  0  0  0
   47.8711   35.8455   40.9432 H   0  0  0  0  0  0  0  0  0  0  0  0
   48.1113   35.8228   42.7356 H   0  0  0  0  0  0  0  0  0  0  0  0
   47.9144   33.1713   40.1418 H   0  0  0  0  0  0  0  0  0  0  0  0
   49.6987   31.4070   39.8603 H   0  0  0  0  0  0  0  0  0  0  0  0
   51.8758   33.3755   42.9788 H   0  0  0  0  0  0  0  0  0  0  0  0
  1  4  1  0
  2  3  1  0
  3  8  2  0
  4  5  2  0
  4  3  1  0
  5  6  1  0
  6  7  2  0
  8  7  1  0
  8  9  1  0
 10  1  1  0
 11 10  1  0
 11 16  1  0
 12 11  2  0
 13 12  1  0
 13 14  2  0
 14 15  1  0
 15 16  2  0
  1 17  1  0
  1 18  1  0
  5 19  1  0
  6 20  1  0
  7 21  1  0
  9 22  1  0
  9 23  1  0
 10 24  1  0
 10 25  1  0
 12 26  1  0
 13 27  1  0
 15 28  1  0
M  ISO  8  17   8  18   8  19  14  20  14  21  14  24   8  25   8  26  14
M  ISO  2  27  14  28  14
M  END
>  <minimizedAffinity>  (1) 
-5.33821201

>  <minimizedRMSD>  (1) 
0.639653504

$$$$
