
     RDKit          3D

 29 30  0  0  0  0  0  0  0  0999 V2000
   46.7300   34.4120   41.5980 C   0  0  0  0  0  0  0  0  0  0  0  0
   44.9470   36.3050   43.0540 Cl  0  0  0  0  0  0  0  0  0  0  0  0
   45.6080   34.8530   43.7870 C   0  0  0  0  0  0  0  0  0  0  0  0
   46.4170   34.0590   43.0170 C   0  0  0  0  0  0  0  0  0  0  0  0
   46.9340   32.9230   43.5910 C   0  0  0  0  0  0  0  0  0  0  0  0
   46.6470   32.5890   44.9120 C   0  0  0  0  0  0  0  0  0  0  0  0
   45.8230   33.4050   45.6850 C   0  0  0  0  0  0  0  0  0  0  0  0
   45.3090   34.5450   45.0960 C   0  0  0  0  0  0  0  0  0  0  0  0
   44.4300   35.4500   45.8590 C   0  0  0  0  0  0  0  0  0  0  0  0
   48.0710   35.0350   41.4260 C   0  0  0  0  0  0  0  0  0  0  0  0
   49.1020   34.0140   41.4050 C   0  0  0  0  0  0  0  0  0  0  0  0
   49.0840   32.9560   40.5300 C   0  0  0  0  0  0  0  0  0  0  0  0
   50.0830   31.9820   40.5230 C   0  0  0  0  0  0  0  0  0  0  0  0
   51.0730   32.1520   41.4370 N   0  0  0  0  0  0  0  0  0  0  0  0
   51.0900   33.1950   42.2980 C   0  0  0  0  0  0  0  0  0  0  0  0
   50.1150   34.1040   42.2730 N   0  0  0  0  0  0  0  0  0  0  0  0
   46.6920   33.4937   40.9937 H   0  0  0  0  0  0  0  0  0  0  0  0
   45.9838   35.1530   41.2754 H   0  0  0  0  0  0  0  0  0  0  0  0
   47.5860   32.2659   42.9968 H   0  0  0  0  0  0  0  0  0  0  0  0
   47.0739   31.6741   45.3488 H   0  0  0  0  0  0  0  0  0  0  0  0
   45.5894   33.1503   46.7293 H   0  0  0  0  0  0  0  0  0  0  0  0
   44.5853   35.2901   46.9362 H   0  0  0  0  0  0  0  0  0  0  0  0
   44.6687   36.4933   45.6050 H   0  0  0  0  0  0  0  0  0  0  0  0
   43.3802   35.2418   45.6050 H   0  0  0  0  0  0  0  0  0  0  0  0
   48.0932   35.5926   40.4780 H   0  0  0  0  0  0  0  0  0  0  0  0
   48.2596   35.7165   42.2686 H   0  0  0  0  0  0  0  0  0  0  0  0
   48.2553   32.8736   39.8114 H   0  0  0  0  0  0  0  0  0  0  0  0
   50.0696   31.1330   39.8237 H   0  0  0  0  0  0  0  0  0  0  0  0
   51.9121   33.2937   43.0222 H   0  0  0  0  0  0  0  0  0  0  0  0
  1  4  1  0
  2  3  1  0
  3  8  2  0
  4  5  2  0
  4  3  1  0
  5  6  1  0
  6  7  2  0
  8  7  1  0
  8  9  1  0
 10  1  1  0
 11 10  1  0
 11 16  1  0
 12 11  2  0
 13 12  1  0
 13 14  2  0
 14 15  1  0
 16 15  2  0
  1 17  1  0
  1 18  1  0
  5 19  1  0
  6 20  1  0
  7 21  1  0
  9 22  1  0
  9 23  1  0
  9 24  1  0
 10 25  1  0
 10 26  1  0
 12 27  1  0
 13 28  1  0
 15 29  1  0
M  ISO  8  17   8  18   8  19  14  20  14  21  14  22   8  23   8  24   8
M  ISO  5  25   8  26   8  27  14  28  14  29  14
M  END
>  <minimizedAffinity>  (1) 
-4.59002018

>  <minimizedRMSD>  (1) 
0.660746932

$$$$
