
     RDKit          3D

 29 30  0  0  0  0  0  0  0  0999 V2000
   46.5280   34.7930   42.2450 C   0  0  0  0  0  0  0  0  0  0  0  0
   44.6220   36.3860   43.8800 Cl  0  0  0  0  0  0  0  0  0  0  0  0
   45.4060   34.9390   44.4860 C   0  0  0  0  0  0  0  0  0  0  0  0
   46.2650   34.3000   43.6270 C   0  0  0  0  0  0  0  0  0  0  0  0
   46.8930   33.1610   44.0860 C   0  0  0  0  0  0  0  0  0  0  0  0
   46.6650   32.6850   45.3590 C   0  0  0  0  0  0  0  0  0  0  0  0
   45.7860   33.3500   46.2180 C   0  0  0  0  0  0  0  0  0  0  0  0
   45.1590   34.4940   45.7480 C   0  0  0  0  0  0  0  0  0  0  0  0
   44.2620   35.2340   46.5280 O   0  0  0  0  0  0  0  0  0  0  0  0
   47.9380   35.1890   41.9950 C   0  0  0  0  0  0  0  0  0  0  0  0
   48.6650   34.0860   41.3830 C   0  0  0  0  0  0  0  0  0  0  0  0
   48.2510   33.4970   40.2190 C   0  0  0  0  0  0  0  0  0  0  0  0
   48.9330   32.4370   39.6170 C   0  0  0  0  0  0  0  0  0  0  0  0
   50.0550   32.0310   40.2910 N   0  0  0  0  0  0  0  0  0  0  0  0
   50.4540   32.6190   41.4420 C   0  0  0  0  0  0  0  0  0  0  0  0
   49.7720   33.6230   41.9720 N   0  0  0  0  0  0  0  0  0  0  0  0
   51.6310   32.1700   42.1190 N   0  0  0  0  0  0  0  0  0  0  0  0
   46.2644   33.9928   41.5378 H   0  0  0  0  0  0  0  0  0  0  0  0
   45.9182   35.6988   42.1124 H   0  0  0  0  0  0  0  0  0  0  0  0
   47.5880   32.6232   43.4244 H   0  0  0  0  0  0  0  0  0  0  0  0
   47.1788   31.7747   45.7015 H   0  0  0  0  0  0  0  0  0  0  0  0
   45.5973   32.9774   47.2356 H   0  0  0  0  0  0  0  0  0  0  0  0
   44.0542   34.9450   47.4518 H   0  0  0  0  0  0  0  0  0  0  0  0
   47.9581   36.0573   41.3200 H   0  0  0  0  0  0  0  0  0  0  0  0
   48.4148   35.4484   42.9518 H   0  0  0  0  0  0  0  0  0  0  0  0
   47.3388   33.8760   39.7351 H   0  0  0  0  0  0  0  0  0  0  0  0
   48.5976   31.9675   38.6805 H   0  0  0  0  0  0  0  0  0  0  0  0
   51.9263   32.6245   42.9949 H   0  0  0  0  0  0  0  0  0  0  0  0
   52.1834   31.3922   41.7307 H   0  0  0  0  0  0  0  0  0  0  0  0
  1  4  1  0
  2  3  1  0
  3  8  2  0
  4  5  2  0
  4  3  1  0
  5  6  1  0
  6  7  2  0
  8  7  1  0
  8  9  1  0
 10  1  1  0
 11 16  1  0
 11 10  1  0
 12 11  2  0
 13 12  1  0
 13 14  2  0
 14 15  1  0
 15 16  2  0
 15 17  1  0
  1 18  1  0
  1 19  1  0
  5 20  1  0
  6 21  1  0
  7 22  1  0
  9 23  1  0
 10 24  1  0
 10 25  1  0
 12 26  1  0
 13 27  1  0
 17 28  1  0
 17 29  1  0
M  ISO  8  18   8  19   8  20  14  21  14  22  14  23   3  24   8  25   8
M  ISO  2  26  14  27  14
M  END
>  <minimizedAffinity>  (1) 
-5.46263361

>  <minimizedRMSD>  (1) 
0.755738258

$$$$
