
     RDKit          3D

 29 30  0  0  0  0  0  0  0  0999 V2000
   46.4590   34.9390   42.3010 C   0  0  0  0  0  0  0  0  0  0  0  0
   44.5480   36.4250   44.0270 Cl  0  0  0  0  0  0  0  0  0  0  0  0
   45.3710   34.9740   44.5520 C   0  0  0  0  0  0  0  0  0  0  0  0
   46.2350   34.3770   43.6540 C   0  0  0  0  0  0  0  0  0  0  0  0
   46.8850   33.2370   44.0620 C   0  0  0  0  0  0  0  0  0  0  0  0
   46.6800   32.7040   45.3310 C   0  0  0  0  0  0  0  0  0  0  0  0
   45.7980   33.3250   46.2270 C   0  0  0  0  0  0  0  0  0  0  0  0
   45.1540   34.4630   45.8090 C   0  0  0  0  0  0  0  0  0  0  0  0
   44.2580   35.1520   46.6320 O   0  0  0  0  0  0  0  0  0  0  0  0
   47.8990   35.1390   41.9760 C   0  0  0  0  0  0  0  0  0  0  0  0
   48.3370   34.1910   40.9680 C   0  0  0  0  0  0  0  0  0  0  0  0
   47.8290   34.2090   39.6990 C   0  0  0  0  0  0  0  0  0  0  0  0
   48.2440   33.2990   38.7180 C   0  0  0  0  0  0  0  0  0  0  0  0
   49.1870   32.4000   39.1210 N   0  0  0  0  0  0  0  0  0  0  0  0
   49.6750   32.4000   40.3760 C   0  0  0  0  0  0  0  0  0  0  0  0
   49.2570   33.2760   41.2760 N   0  0  0  0  0  0  0  0  0  0  0  0
   50.6850   31.4220   40.7720 C   0  0  0  0  0  0  0  0  0  0  0  0
   51.9310   31.7120   40.7650 O   0  0  0  0  0  0  0  0  0  0  0  0
   46.0267   34.2496   41.5608 H   0  0  0  0  0  0  0  0  0  0  0  0
   45.9793   35.9286   42.2762 H   0  0  0  0  0  0  0  0  0  0  0  0
   47.5805   32.7363   43.3724 H   0  0  0  0  0  0  0  0  0  0  0  0
   47.2129   31.7903   45.6330 H   0  0  0  0  0  0  0  0  0  0  0  0
   45.6276   32.9134   47.2327 H   0  0  0  0  0  0  0  0  0  0  0  0
   44.0704   34.8209   47.5459 H   0  0  0  0  0  0  0  0  0  0  0  0
   48.0444   36.1613   41.5968 H   0  0  0  0  0  0  0  0  0  0  0  0
   48.4915   34.9811   42.8892 H   0  0  0  0  0  0  0  0  0  0  0  0
   47.0702   34.9620   39.4399 H   0  0  0  0  0  0  0  0  0  0  0  0
   47.8382   33.3089   37.6956 H   0  0  0  0  0  0  0  0  0  0  0  0
   50.3678   30.4156   41.0826 H   0  0  0  0  0  0  0  0  0  0  0  0
  1  4  1  0
  2  3  1  0
  3  8  2  0
  4  5  2  0
  4  3  1  0
  5  6  1  0
  6  7  2  0
  8  7  1  0
  8  9  1  0
 10  1  1  0
 11 16  1  0
 11 10  1  0
 12 11  2  0
 13 14  2  0
 13 12  1  0
 14 15  1  0
 15 17  1  0
 15 16  2  0
 18 17  2  0
  1 19  1  0
  1 20  1  0
  5 21  1  0
  6 22  1  0
  7 23  1  0
  9 24  1  0
 10 25  1  0
 10 26  1  0
 12 27  1  0
 13 28  1  0
 17 29  1  0
M  ISO  8  19   8  20   8  21  14  22  14  23  14  24   3  25   8  26   8
M  ISO  3  27  14  28  14  29   6
M  END
>  <minimizedAffinity>  (1) 
-5.32426262

>  <minimizedRMSD>  (1) 
1.63757229

$$$$
