
     RDKit          3D

 42 44  0  0  1  0  0  0  0  0999 V2000
   48.2860   34.1200   41.0260 C   0  0  0  0  0  0  0  0  0  0  0  0
   47.7250   34.3150   39.7830 C   0  0  0  0  0  0  0  0  0  0  0  0
   48.0680   33.5480   38.6620 C   0  0  0  0  0  0  0  0  0  0  0  0
   49.0040   32.5830   38.8810 N   0  0  0  0  0  0  0  0  0  0  0  0
   49.5450   32.4000   40.0930 C   0  0  0  0  0  0  0  0  0  0  0  0
   49.1910   33.1540   41.1410 N   0  0  0  0  0  0  0  0  0  0  0  0
   50.5530   31.3220   40.3520 C   0  0  2  0  0  0  0  0  0  0  0  0
   51.0880   31.1590   41.7390 C   0  0  0  0  0  0  0  0  0  0  0  0
   51.9480   31.7700   40.6260 C   0  0  1  0  0  0  0  0  0  0  0  0
   52.9880   30.9600   40.0720 N   0  0  0  0  0  0  0  0  0  0  0  0
   53.1480   31.1480   38.3660 S   0  0  0  0  0  0  0  0  0  0  0  0
   54.5680   31.2110   37.9400 O   0  0  0  0  0  0  0  0  0  0  0  0
   52.5720   29.8790   37.7520 O   0  0  0  0  0  0  0  0  0  0  0  0
   52.2270   32.4140   37.7740 O   0  0  0  0  0  0  0  0  0  0  0  0
   47.9100   34.9130   42.1720 C   0  0  0  0  0  0  0  0  0  0  0  0
   46.4910   34.7130   42.5180 C   0  0  0  0  0  0  0  0  0  0  0  0
   44.5340   36.1260   44.2420 Cl  0  0  0  0  0  0  0  0  0  0  0  0
   45.4010   34.7240   44.7790 C   0  0  0  0  0  0  0  0  0  0  0  0
   46.2820   34.1590   43.8910 C   0  0  0  0  0  0  0  0  0  0  0  0
   46.9860   33.0350   44.3130 C   0  0  0  0  0  0  0  0  0  0  0  0
   46.8020   32.5120   45.5740 C   0  0  0  0  0  0  0  0  0  0  0  0
   45.8950   33.1080   46.4640 C   0  0  0  0  0  0  0  0  0  0  0  0
   45.2000   34.2270   46.0350 C   0  0  0  0  0  0  0  0  0  0  0  0
   44.2730   34.8920   46.8480 O   0  0  0  0  0  0  0  0  0  0  0  0
   46.9733   35.1094   39.6653 H   0  0  0  0  0  0  0  0  0  0  0  0
   47.6133   33.7135   37.6741 H   0  0  0  0  0  0  0  0  0  0  0  0
   50.0812   30.6298   39.6390 H   0  0  0  0  0  0  0  0  0  0  0  0
   50.7094   31.7915   42.5555 H   0  0  0  0  0  0  0  0  0  0  0  0
   51.1972   30.3215   42.4438 H   0  0  0  0  0  0  0  0  0  0  0  0
   52.5164   32.7048   40.5119 H   0  0  0  0  0  0  0  0  0  0  0  0
   53.8798   31.2209   40.5165 H   0  0  0  0  0  0  0  0  0  0  0  0
   55.1515   31.2369   38.7394 H   0  0  0  0  0  0  0  0  0  0  0  0
   52.2916   29.2613   38.4731 H   0  0  0  0  0  0  0  0  0  0  0  0
   51.8512   32.9306   38.5303 H   0  0  0  0  0  0  0  0  0  0  0  0
   48.5329   34.6208   43.0302 H   0  0  0  0  0  0  0  0  0  0  0  0
   48.0615   35.9742   41.9253 H   0  0  0  0  0  0  0  0  0  0  0  0
   45.9770   35.6833   42.4526 H   0  0  0  0  0  0  0  0  0  0  0  0
   46.0865   33.9766   41.8080 H   0  0  0  0  0  0  0  0  0  0  0  0
   47.7013   32.5563   43.6281 H   0  0  0  0  0  0  0  0  0  0  0  0
   47.3691   31.6223   45.8852 H   0  0  0  0  0  0  0  0  0  0  0  0
   45.7404   32.6984   47.4731 H   0  0  0  0  0  0  0  0  0  0  0  0
   44.0961   34.5660   47.7659 H   0  0  0  0  0  0  0  0  0  0  0  0
  1  6  1  0
  1 15  1  0
  2  1  2  0
  3  4  2  0
  3  2  1  0
  4  5  1  0
  5  7  1  0
  5  6  2  0
  7  9  1  0
  7  8  1  0
  9  8  1  0
 10  9  1  0
 11 10  1  0
 12 11  1  0
 13 11  1  0
 14 11  1  0
 15 16  1  0
 16 19  1  0
 17 18  1  0
 18 23  2  0
 19 20  2  0
 19 18  1  0
 20 21  1  0
 21 22  2  0
 23 22  1  0
 23 24  1  0
  2 25  1  0
  3 26  1  0
  7 27  1  6
  8 28  1  0
  8 29  1  0
  9 30  1  1
 10 31  1  0
 12 32  1  0
 13 33  1  0
 14 34  1  0
 15 35  1  0
 15 36  1  0
 16 37  1  0
 16 38  1  0
 20 39  1  0
 21 40  1  0
 22 41  1  0
 24 42  1  0
M  ISO  8  25  14  26  14  27  13  28  13  29  13  30  13  31   5  32   3
M  ISO  8  33   3  34   3  35   8  36   8  37   8  38   8  39  14  40  14
M  ISO  2  41  14  42   3
M  END
>  <minimizedAffinity>  (1) 
-6.12475109

>  <minimizedRMSD>  (1) 
0.994865119

$$$$
