
     RDKit          3D

 44 47  0  0  1  0  0  0  0  0999 V2000
   48.4410   34.0850   40.9890 C   0  0  0  0  0  0  0  0  0  0  0  0
   47.8090   34.3000   39.7910 C   0  0  0  0  0  0  0  0  0  0  0  0
   48.0640   33.5370   38.6510 C   0  0  0  0  0  0  0  0  0  0  0  0
   48.9890   32.5560   38.8020 N   0  0  0  0  0  0  0  0  0  0  0  0
   49.6060   32.3500   39.9790 C   0  0  0  0  0  0  0  0  0  0  0  0
   49.3320   33.1040   41.0500 N   0  0  0  0  0  0  0  0  0  0  0  0
   50.6090   31.2460   40.1550 C   0  0  2  0  0  0  0  0  0  0  0  0
   51.1350   30.9800   41.5290 C   0  0  0  0  0  0  0  0  0  0  0  0
   52.0020   31.6780   40.4660 C   0  0  1  0  0  0  0  0  0  0  0  0
   53.1700   30.8800   40.0760 C   0  0  0  0  0  0  0  0  0  0  0  0
   53.8920   30.0800   40.9460 C   0  0  0  0  0  0  0  0  0  0  0  0
   54.9820   29.3290   40.6050 C   0  0  0  0  0  0  0  0  0  0  0  0
   55.4130   29.3540   39.3060 C   0  0  0  0  0  0  0  0  0  0  0  0
   54.7290   30.1400   38.3770 C   0  0  0  0  0  0  0  0  0  0  0  0
   53.6200   30.8940   38.7610 C   0  0  0  0  0  0  0  0  0  0  0  0
   48.1580   34.8790   42.1720 C   0  0  0  0  0  0  0  0  0  0  0  0
   46.6900   34.8540   42.4610 C   0  0  0  0  0  0  0  0  0  0  0  0
   44.6960   36.3400   44.1160 Cl  0  0  0  0  0  0  0  0  0  0  0  0
   45.4780   34.8790   44.6620 C   0  0  0  0  0  0  0  0  0  0  0  0
   46.3810   34.2820   43.8070 C   0  0  0  0  0  0  0  0  0  0  0  0
   47.0060   33.1230   44.2290 C   0  0  0  0  0  0  0  0  0  0  0  0
   46.7350   32.5760   45.4730 C   0  0  0  0  0  0  0  0  0  0  0  0
   45.8120   33.2020   46.3270 C   0  0  0  0  0  0  0  0  0  0  0  0
   45.1960   34.3520   45.9010 C   0  0  0  0  0  0  0  0  0  0  0  0
   44.2730   35.0320   46.6840 O   0  0  0  0  0  0  0  0  0  0  0  0
   47.0679   35.1102   39.7259 H   0  0  0  0  0  0  0  0  0  0  0  0
   47.5503   33.7184   37.6954 H   0  0  0  0  0  0  0  0  0  0  0  0
   50.1420   30.6062   39.3917 H   0  0  0  0  0  0  0  0  0  0  0  0
   50.7495   31.5481   42.3885 H   0  0  0  0  0  0  0  0  0  0  0  0
   51.2425   30.0923   42.1696 H   0  0  0  0  0  0  0  0  0  0  0  0
   52.5228   32.6335   40.3054 H   0  0  0  0  0  0  0  0  0  0  0  0
   53.5620   30.0463   41.9948 H   0  0  0  0  0  0  0  0  0  0  0  0
   55.5014   28.7180   41.3579 H   0  0  0  0  0  0  0  0  0  0  0  0
   56.2875   28.7621   38.9980 H   0  0  0  0  0  0  0  0  0  0  0  0
   55.0682   30.1651   37.3309 H   0  0  0  0  0  0  0  0  0  0  0  0
   53.0951   31.5073   38.0138 H   0  0  0  0  0  0  0  0  0  0  0  0
   48.7061   34.4633   43.0303 H   0  0  0  0  0  0  0  0  0  0  0  0
   48.4756   35.9174   41.9965 H   0  0  0  0  0  0  0  0  0  0  0  0
   46.3045   35.8834   42.4182 H   0  0  0  0  0  0  0  0  0  0  0  0
   46.2119   34.2113   41.7071 H   0  0  0  0  0  0  0  0  0  0  0  0
   47.7303   32.6270   43.5662 H   0  0  0  0  0  0  0  0  0  0  0  0
   47.2419   31.6531   45.7912 H   0  0  0  0  0  0  0  0  0  0  0  0
   45.5875   32.7790   47.3173 H   0  0  0  0  0  0  0  0  0  0  0  0
   44.0389   34.6897   47.5830 H   0  0  0  0  0  0  0  0  0  0  0  0
  1  6  1  0
  1 16  1  0
  2  1  2  0
  3  4  2  0
  3  2  1  0
  4  5  1  0
  5  7  1  0
  5  6  2  0
  7  9  1  0
  7  8  1  0
  9  8  1  0
 10  9  1  0
 10 11  2  0
 12 11  1  0
 13 12  2  0
 14 15  2  0
 14 13  1  0
 15 10  1  0
 16 17  1  0
 17 20  1  0
 18 19  1  0
 19 24  2  0
 20 21  2  0
 20 19  1  0
 21 22  1  0
 22 23  2  0
 24 23  1  0
 24 25  1  0
  2 26  1  0
  3 27  1  0
  7 28  1  6
  8 29  1  0
  8 30  1  0
  9 31  1  1
 11 32  1  0
 12 33  1  0
 13 34  1  0
 14 35  1  0
 15 36  1  0
 16 37  1  0
 16 38  1  0
 17 39  1  0
 17 40  1  0
 21 41  1  0
 22 42  1  0
 23 43  1  0
 25 44  1  0
M  ISO  8  26  14  27  14  28  13  29  13  30  13  31  13  32  14  33  14
M  ISO  8  34  14  35  14  36  14  37   8  38   8  39   8  40   8  41  14
M  ISO  3  42  14  43  14  44   3
M  END
>  <minimizedAffinity>  (1) 
-6.04218674

>  <minimizedRMSD>  (1) 
0.497134775

$$$$
