
     RDKit          3D

 49 52  0  0  1  0  0  0  0  0999 V2000
   48.3210   34.0520   40.9490 C   0  0  0  0  0  0  0  0  0  0  0  0
   47.5630   34.1790   39.8070 C   0  0  0  0  0  0  0  0  0  0  0  0
   47.7560   33.3820   38.6700 C   0  0  0  0  0  0  0  0  0  0  0  0
   48.7560   32.4620   38.7690 N   0  0  0  0  0  0  0  0  0  0  0  0
   49.4920   32.3430   39.8830 C   0  0  0  0  0  0  0  0  0  0  0  0
   49.2750   33.1240   40.9480 N   0  0  0  0  0  0  0  0  0  0  0  0
   50.5720   31.3190   40.0100 C   0  0  2  0  0  0  0  0  0  0  0  0
   50.8120   30.6910   41.3480 C   0  0  0  0  0  0  0  0  0  0  0  0
   51.7870   31.7220   40.7650 C   0  0  1  0  0  0  0  0  0  0  0  0
   53.0430   31.2890   40.2420 N   0  0  0  0  0  0  0  0  0  0  0  0
   53.0720   31.4290   38.8210 C   0  0  0  0  0  0  0  0  0  0  0  0
   54.2340   30.7880   38.1390 C   0  0  0  0  0  0  0  0  0  0  0  0
   54.4410   29.3720   38.6620 C   0  0  0  0  0  0  0  0  0  0  0  0
   54.7310   29.5470   40.1520 C   0  0  0  0  0  0  0  0  0  0  0  0
   53.3860   29.9930   40.7410 C   0  0  0  0  0  0  0  0  0  0  0  0
   48.0990   34.8750   42.1160 C   0  0  0  0  0  0  0  0  0  0  0  0
   46.6710   34.9060   42.4840 C   0  0  0  0  0  0  0  0  0  0  0  0
   44.6840   36.3550   44.1590 Cl  0  0  0  0  0  0  0  0  0  0  0  0
   45.4760   34.8840   44.6850 C   0  0  0  0  0  0  0  0  0  0  0  0
   46.3750   34.3070   43.8210 C   0  0  0  0  0  0  0  0  0  0  0  0
   47.0010   33.1510   44.2220 C   0  0  0  0  0  0  0  0  0  0  0  0
   46.7380   32.5830   45.4570 C   0  0  0  0  0  0  0  0  0  0  0  0
   45.8150   33.1900   46.3250 C   0  0  0  0  0  0  0  0  0  0  0  0
   45.2010   34.3390   45.9130 C   0  0  0  0  0  0  0  0  0  0  0  0
   44.2620   35.0210   46.7090 O   0  0  0  0  0  0  0  0  0  0  0  0
   46.7696   34.9406   39.7856 H   0  0  0  0  0  0  0  0  0  0  0  0
   47.1438   33.4916   37.7627 H   0  0  0  0  0  0  0  0  0  0  0  0
   50.3780   30.9099   39.0075 H   0  0  0  0  0  0  0  0  0  0  0  0
   50.1752   30.9544   42.2054 H   0  0  0  0  0  0  0  0  0  0  0  0
   50.8921   29.6625   41.7299 H   0  0  0  0  0  0  0  0  0  0  0  0
   52.2195   32.6622   41.1378 H   0  0  0  0  0  0  0  0  0  0  0  0
   52.1520   30.9814   38.4169 H   0  0  0  0  0  0  0  0  0  0  0  0
   53.1619   32.5075   38.6242 H   0  0  0  0  0  0  0  0  0  0  0  0
   55.1399   31.3816   38.3314 H   0  0  0  0  0  0  0  0  0  0  0  0
   54.0338   30.7438   37.0583 H   0  0  0  0  0  0  0  0  0  0  0  0
   53.5349   28.7667   38.5117 H   0  0  0  0  0  0  0  0  0  0  0  0
   55.2553   28.8499   38.1382 H   0  0  0  0  0  0  0  0  0  0  0  0
   55.0591   28.5978   40.6008 H   0  0  0  0  0  0  0  0  0  0  0  0
   55.5383   30.2689   40.3447 H   0  0  0  0  0  0  0  0  0  0  0  0
   53.4630   30.0328   41.8376 H   0  0  0  0  0  0  0  0  0  0  0  0
   52.6062   29.2741   40.4494 H   0  0  0  0  0  0  0  0  0  0  0  0
   48.6776   34.4670   42.9579 H   0  0  0  0  0  0  0  0  0  0  0  0
   48.4211   35.9010   41.8846 H   0  0  0  0  0  0  0  0  0  0  0  0
   46.3389   35.9546   42.4935 H   0  0  0  0  0  0  0  0  0  0  0  0
   46.1367   34.2994   41.7380 H   0  0  0  0  0  0  0  0  0  0  0  0
   47.7247   32.6679   43.5490 H   0  0  0  0  0  0  0  0  0  0  0  0
   47.2510   31.6577   45.7582 H   0  0  0  0  0  0  0  0  0  0  0  0
   45.5927   32.7522   47.3094 H   0  0  0  0  0  0  0  0  0  0  0  0
   44.0259   34.6718   47.6048 H   0  0  0  0  0  0  0  0  0  0  0  0
  1 16  1  0
  2  1  2  0
  3  4  2  0
  3  2  1  0
  4  5  1  0
  5  7  1  0
  5  6  2  0
  6  1  1  0
  7  9  1  0
  7  8  1  0
  9  8  1  0
 10 15  1  0
 10  9  1  0
 11 10  1  0
 12 13  1  0
 12 11  1  0
 13 14  1  0
 14 15  1  0
 16 17  1  0
 17 20  1  0
 18 19  1  0
 19 24  2  0
 20 21  2  0
 20 19  1  0
 21 22  1  0
 22 23  2  0
 24 23  1  0
 24 25  1  0
  2 26  1  0
  3 27  1  0
  7 28  1  6
  8 29  1  0
  8 30  1  0
  9 31  1  1
 11 32  1  0
 11 33  1  0
 12 34  1  0
 12 35  1  0
 13 36  1  0
 13 37  1  0
 14 38  1  0
 14 39  1  0
 15 40  1  0
 15 41  1  0
 16 42  1  0
 16 43  1  0
 17 44  1  0
 17 45  1  0
 21 46  1  0
 22 47  1  0
 23 48  1  0
 25 49  1  0
M  ISO  8  26  14  27  14  28  13  29  13  30  13  31  13  32  13  33  13
M  ISO  8  34  13  35  13  36  13  37  13  38  13  39  13  40  13  41  13
M  ISO  8  42   8  43   8  44   8  45   8  46  14  47  14  48  14  49   3
M  END
>  <minimizedAffinity>  (1) 
-5.96321917

>  <minimizedRMSD>  (1) 
0.75321573

$$$$
