
     RDKit          3D

 37 39  0  0  1  0  0  0  0  0999 V2000
   47.9120   35.1100   41.9680 C   0  0  0  0  0  0  0  0  0  0  0  0
   48.3200   34.2060   40.9180 C   0  0  0  0  0  0  0  0  0  0  0  0
   47.8210   34.2990   39.6440 C   0  0  0  0  0  0  0  0  0  0  0  0
   48.1900   33.4270   38.6090 C   0  0  0  0  0  0  0  0  0  0  0  0
   49.0850   32.4710   38.9550 N   0  0  0  0  0  0  0  0  0  0  0  0
   49.5750   32.3770   40.1970 C   0  0  0  0  0  0  0  0  0  0  0  0
   49.1940   33.2320   41.1540 N   0  0  0  0  0  0  0  0  0  0  0  0
   50.5420   31.3040   40.5950 C   0  0  2  0  0  0  0  0  0  0  0  0
   51.1480   31.3620   41.9620 C   0  0  0  0  0  0  0  0  0  0  0  0
   51.9700   31.7210   40.7140 C   0  0  1  0  0  0  0  0  0  0  0  0
   52.9710   30.6620   40.3090 C   0  0  0  0  0  0  0  0  0  0  0  0
   46.4860   34.9330   42.3040 C   0  0  0  0  0  0  0  0  0  0  0  0
   44.5670   36.4110   44.0220 Cl  0  0  0  0  0  0  0  0  0  0  0  0
   45.3850   34.9670   44.5540 C   0  0  0  0  0  0  0  0  0  0  0  0
   46.2510   34.3740   43.6660 C   0  0  0  0  0  0  0  0  0  0  0  0
   46.9080   33.2240   44.0810 C   0  0  0  0  0  0  0  0  0  0  0  0
   46.6990   32.6910   45.3400 C   0  0  0  0  0  0  0  0  0  0  0  0
   45.8060   33.3250   46.2220 C   0  0  0  0  0  0  0  0  0  0  0  0
   45.1600   34.4630   45.8020 C   0  0  0  0  0  0  0  0  0  0  0  0
   44.2600   35.1440   46.6230 O   0  0  0  0  0  0  0  0  0  0  0  0
   48.0755   36.1450   41.6333 H   0  0  0  0  0  0  0  0  0  0  0  0
   48.5097   34.8921   42.8654 H   0  0  0  0  0  0  0  0  0  0  0  0
   47.0961   35.0962   39.4230 H   0  0  0  0  0  0  0  0  0  0  0  0
   47.7824   33.5133   37.5910 H   0  0  0  0  0  0  0  0  0  0  0  0
   49.9998   30.5212   40.0443 H   0  0  0  0  0  0  0  0  0  0  0  0
   50.8439   32.1481   42.6688 H   0  0  0  0  0  0  0  0  0  0  0  0
   51.2614   30.6584   42.7999 H   0  0  0  0  0  0  0  0  0  0  0  0
   52.5622   32.5867   40.3825 H   0  0  0  0  0  0  0  0  0  0  0  0
   53.4044   30.2034   41.2100 H   0  0  0  0  0  0  0  0  0  0  0  0
   52.4656   29.8892   39.7112 H   0  0  0  0  0  0  0  0  0  0  0  0
   53.7710   31.1231   39.7112 H   0  0  0  0  0  0  0  0  0  0  0  0
   45.9913   35.9135   42.2420 H   0  0  0  0  0  0  0  0  0  0  0  0
   46.0766   34.2071   41.5860 H   0  0  0  0  0  0  0  0  0  0  0  0
   47.6091   32.7265   43.3947 H   0  0  0  0  0  0  0  0  0  0  0  0
   47.2277   31.7773   45.6493 H   0  0  0  0  0  0  0  0  0  0  0  0
   45.6280   32.9181   47.2284 H   0  0  0  0  0  0  0  0  0  0  0  0
   44.0709   34.8089   47.5351 H   0  0  0  0  0  0  0  0  0  0  0  0
  1 12  1  0
  2  7  1  0
  2  1  1  0
  3  2  2  0
  4  5  2  0
  4  3  1  0
  5  6  1  0
  6  8  1  0
  6  7  2  0
  8 10  1  0
  8  9  1  0
 10  9  1  0
 11 10  1  0
 12 15  1  0
 13 14  1  0
 14 19  2  0
 15 16  2  0
 15 14  1  0
 16 17  1  0
 17 18  2  0
 19 18  1  0
 19 20  1  0
  1 21  1  0
  1 22  1  0
  3 23  1  0
  4 24  1  0
  8 25  1  6
  9 26  1  0
  9 27  1  0
 10 28  1  1
 11 29  1  0
 11 30  1  0
 11 31  1  0
 12 32  1  0
 12 33  1  0
 16 34  1  0
 17 35  1  0
 18 36  1  0
 20 37  1  0
M  ISO  8  21   8  22   8  23  14  24  14  25  13  26  13  27  13  28  13
M  ISO  8  29   8  30   8  31   8  32   8  33   8  34  14  35  14  36  14
M  ISO  1  37   3
M  END
>  <minimizedAffinity>  (1) 
-5.67854309

>  <minimizedRMSD>  (1) 
0.040362373

$$$$
