
     RDKit          3D

 36 38  0  0  1  0  0  0  0  0999 V2000
   47.9030   35.1100   41.9640 C   0  0  0  0  0  0  0  0  0  0  0  0
   48.3140   34.2090   40.9060 C   0  0  0  0  0  0  0  0  0  0  0  0
   47.8310   34.3090   39.6250 C   0  0  0  0  0  0  0  0  0  0  0  0
   48.2080   33.4400   38.5950 C   0  0  0  0  0  0  0  0  0  0  0  0
   49.0980   32.4760   38.9530 N   0  0  0  0  0  0  0  0  0  0  0  0
   49.5660   32.3860   40.2060 C   0  0  0  0  0  0  0  0  0  0  0  0
   49.1840   33.2340   41.1690 N   0  0  0  0  0  0  0  0  0  0  0  0
   50.5280   31.3050   40.6090 C   0  0  2  0  0  0  0  0  0  0  0  0
   51.1340   31.3670   41.9760 C   0  0  0  0  0  0  0  0  0  0  0  0
   51.9580   31.7020   40.7200 C   0  0  1  0  0  0  0  0  0  0  0  0
   52.9450   30.6950   40.4030 N   0  0  0  0  0  0  0  0  0  0  0  0
   46.4810   34.9290   42.2980 C   0  0  0  0  0  0  0  0  0  0  0  0
   44.5890   36.4160   44.0310 Cl  0  0  0  0  0  0  0  0  0  0  0  0
   45.3860   34.9650   44.5540 C   0  0  0  0  0  0  0  0  0  0  0  0
   46.2510   34.3750   43.6630 C   0  0  0  0  0  0  0  0  0  0  0  0
   46.9060   33.2240   44.0800 C   0  0  0  0  0  0  0  0  0  0  0  0
   46.6950   32.7030   45.3330 C   0  0  0  0  0  0  0  0  0  0  0  0
   45.8070   33.3250   46.2200 C   0  0  0  0  0  0  0  0  0  0  0  0
   45.1610   34.4650   45.8000 C   0  0  0  0  0  0  0  0  0  0  0  0
   44.2550   35.1580   46.6120 O   0  0  0  0  0  0  0  0  0  0  0  0
   48.0645   36.1470   41.6345 H   0  0  0  0  0  0  0  0  0  0  0  0
   48.5011   34.8889   42.8603 H   0  0  0  0  0  0  0  0  0  0  0  0
   47.1131   35.1107   39.3972 H   0  0  0  0  0  0  0  0  0  0  0  0
   47.8139   33.5299   37.5720 H   0  0  0  0  0  0  0  0  0  0  0  0
   49.9775   30.5249   40.0628 H   0  0  0  0  0  0  0  0  0  0  0  0
   50.8419   32.1642   42.6754 H   0  0  0  0  0  0  0  0  0  0  0  0
   51.2384   30.6707   42.8212 H   0  0  0  0  0  0  0  0  0  0  0  0
   52.5442   32.5533   40.3437 H   0  0  0  0  0  0  0  0  0  0  0  0
   53.3286   30.3037   41.2751 H   0  0  0  0  0  0  0  0  0  0  0  0
   52.5043   29.9432   39.8540 H   0  0  0  0  0  0  0  0  0  0  0  0
   45.9816   35.9069   42.2316 H   0  0  0  0  0  0  0  0  0  0  0  0
   46.0734   34.1996   41.5825 H   0  0  0  0  0  0  0  0  0  0  0  0
   47.6053   32.7213   43.3957 H   0  0  0  0  0  0  0  0  0  0  0  0
   47.2269   31.7911   45.6422 H   0  0  0  0  0  0  0  0  0  0  0  0
   45.6309   32.9134   47.2248 H   0  0  0  0  0  0  0  0  0  0  0  0
   44.0597   34.8318   47.5261 H   0  0  0  0  0  0  0  0  0  0  0  0
  1 12  1  0
  2  7  1  0
  2  1  1  0
  3  2  2  0
  4  5  2  0
  4  3  1  0
  5  6  1  0
  6  8  1  0
  6  7  2  0
  8 10  1  0
  8  9  1  0
 10  9  1  0
 11 10  1  0
 12 15  1  0
 13 14  1  0
 14 19  2  0
 15 16  2  0
 15 14  1  0
 16 17  1  0
 17 18  2  0
 19 18  1  0
 19 20  1  0
  1 21  1  0
  1 22  1  0
  3 23  1  0
  4 24  1  0
  8 25  1  6
  9 26  1  0
  9 27  1  0
 10 28  1  1
 11 29  1  0
 11 30  1  0
 12 31  1  0
 12 32  1  0
 16 33  1  0
 17 34  1  0
 18 35  1  0
 20 36  1  0
M  ISO  8  21   8  22   8  23  14  24  14  25  13  26  13  27  13  28  13
M  ISO  8  29   5  30   5  31   8  32   8  33  14  34  14  35  14  36   3
M  END
>  <minimizedAffinity>  (1) 
-5.66420317

>  <minimizedRMSD>  (1) 
0.0290898029

$$$$
