
     RDKit          3D

 42 45  0  0  1  0  0  0  0  0999 V2000
   47.2840   34.7260   41.4190 C   0  0  0  0  0  0  0  0  0  0  0  0
   47.9120   33.8790   40.4130 C   0  0  0  0  0  0  0  0  0  0  0  0
   48.0990   34.2880   39.1130 C   0  0  0  0  0  0  0  0  0  0  0  0
   48.6870   33.4820   38.1360 C   0  0  0  0  0  0  0  0  0  0  0  0
   49.0710   32.2490   38.5550 N   0  0  0  0  0  0  0  0  0  0  0  0
   48.8870   31.8570   39.8210 C   0  0  0  0  0  0  0  0  0  0  0  0
   48.3220   32.6660   40.7140 N   0  0  0  0  0  0  0  0  0  0  0  0
   49.2780   30.4910   40.2710 C   0  0  2  0  0  0  0  0  0  0  0  0
   49.6150   30.2560   41.6870 C   0  0  0  0  0  0  0  0  0  0  0  0
   50.7220   30.2900   40.6310 C   0  0  2  0  0  0  0  0  0  0  0  0
   51.8680   31.6360   40.7500 S   0  0  0  0  0  0  0  0  0  0  0  0
   45.9350   34.2540   41.7310 C   0  0  0  0  0  0  0  0  0  0  0  0
   46.6170   32.1580   43.7180 Cl  0  0  0  0  0  0  0  0  0  0  0  0
   45.8060   33.6340   44.1650 C   0  0  0  0  0  0  0  0  0  0  0  0
   45.5190   34.5290   43.1410 C   0  0  0  0  0  0  0  0  0  0  0  0
   44.8560   35.6770   43.4630 C   0  0  0  0  0  0  0  0  0  0  0  0
   44.4820   35.9440   44.7530 C   0  0  0  0  0  0  0  0  0  0  0  0
   44.7810   35.0310   45.7770 C   0  0  0  0  0  0  0  0  0  0  0  0
   45.4450   33.8780   45.4630 C   0  0  0  0  0  0  0  0  0  0  0  0
   45.7930   32.9160   46.3880 O   0  0  0  0  0  0  0  0  0  0  0  0
   45.2070   32.8420   47.6500 C   0  0  0  0  0  0  0  0  0  0  0  0
   44.9590   31.4560   48.1600 C   0  0  0  0  0  0  0  0  0  0  0  0
   45.9780   32.3330   48.8180 C   0  0  0  0  0  0  0  0  0  0  0  0
   47.2258   35.7559   41.0371 H   0  0  0  0  0  0  0  0  0  0  0  0
   47.8898   34.6899   42.3365 H   0  0  0  0  0  0  0  0  0  0  0  0
   47.7695   35.2985   38.8295 H   0  0  0  0  0  0  0  0  0  0  0  0
   48.8291   33.8222   37.0996 H   0  0  0  0  0  0  0  0  0  0  0  0
   48.5662   30.0128   39.5820 H   0  0  0  0  0  0  0  0  0  0  0  0
   49.5256   31.0741   42.4169 H   0  0  0  0  0  0  0  0  0  0  0  0
   49.2934   29.5365   42.4544 H   0  0  0  0  0  0  0  0  0  0  0  0
   51.5091   29.6294   40.2386 H   0  0  0  0  0  0  0  0  0  0  0  0
   52.1071   31.9169   42.0694 H   0  0  0  0  0  0  0  0  0  0  0  0
   45.2259   34.7539   41.0548 H   0  0  0  0  0  0  0  0  0  0  0  0
   45.9357   33.1618   41.6006 H   0  0  0  0  0  0  0  0  0  0  0  0
   44.6172   36.4022   42.6711 H   0  0  0  0  0  0  0  0  0  0  0  0
   43.9462   36.8756   44.9875 H   0  0  0  0  0  0  0  0  0  0  0  0
   44.4856   35.2402   46.8157 H   0  0  0  0  0  0  0  0  0  0  0  0
   44.6232   33.7595   47.4844 H   0  0  0  0  0  0  0  0  0  0  0  0
   44.0181   31.2199   48.6785 H   0  0  0  0  0  0  0  0  0  0  0  0
   44.9660   30.4491   47.7171 H   0  0  0  0  0  0  0  0  0  0  0  0
   47.0490   32.1055   48.7124 H   0  0  0  0  0  0  0  0  0  0  0  0
   46.1531   32.6841   49.8457 H   0  0  0  0  0  0  0  0  0  0  0  0
  1 12  1  0
  2  7  1  0
  2  1  1  0
  3  2  2  0
  4  5  2  0
  4  3  1  0
  5  6  1  0
  6  8  1  0
  6  7  2  0
  8 10  1  0
  8  9  1  0
 10 11  1  0
 10  9  1  0
 12 15  1  0
 13 14  1  0
 14 19  2  0
 15 16  2  0
 15 14  1  0
 16 17  1  0
 17 18  2  0
 19 18  1  0
 19 20  1  0
 20 21  1  0
 21 22  1  0
 21 23  1  0
 22 23  1  0
  1 24  1  0
  1 25  1  0
  3 26  1  0
  4 27  1  0
  8 28  1  6
  9 29  1  0
  9 30  1  0
 10 31  1  6
 11 32  1  0
 12 33  1  0
 12 34  1  0
 16 35  1  0
 17 36  1  0
 18 37  1  0
 21 38  1  0
 22 39  1  0
 22 40  1  0
 23 41  1  0
 23 42  1  0
M  ISO  8  24   8  25   8  26  14  27  14  28  13  29  13  30  13  31  13
M  ISO  8  32  11  33   8  34   8  35  14  36  14  37  14  38  13  39  13
M  ISO  3  40  13  41  13  42  13
M  END
>  <minimizedAffinity>  (1) 
-5.15426731

>  <minimizedRMSD>  (1) 
2.14109111

$$$$
