
     RDKit          3D

 34 35  0  0  0  0  0  0  0  0999 V2000
   46.5800   32.9780   46.2840 C   0  0  0  0  0  0  0  0  0  0  0  0
   47.0190   31.5800   46.0960 C   0  0  0  0  0  0  0  0  0  0  0  0
   46.0410   30.5780   46.6480 C   0  0  0  0  0  0  0  0  0  0  0  0
   45.6830   30.8330   48.0960 C   0  0  0  0  0  0  0  0  0  0  0  0
   45.4530   32.2990   48.4070 C   0  0  0  0  0  0  0  0  0  0  0  0
   45.3360   33.1260   47.1510 C   0  0  0  0  0  0  0  0  0  0  0  0
   46.2550   33.6260   44.9830 C   0  0  0  0  0  0  0  0  0  0  0  0
   47.2550   33.5540   43.9780 C   0  0  0  0  0  0  0  0  0  0  0  0
   47.0160   34.1330   42.7310 C   0  0  0  0  0  0  0  0  0  0  0  0
   45.7930   34.7460   42.5680 N   0  0  0  0  0  0  0  0  0  0  0  0
   44.8620   34.8050   43.5320 C   0  0  0  0  0  0  0  0  0  0  0  0
   45.0940   34.2490   44.7240 N   0  0  0  0  0  0  0  0  0  0  0  0
   43.6220   35.4590   43.2820 N   0  0  0  0  0  0  0  0  0  0  0  0
   42.7610   35.1840   41.8090 S   0  0  0  0  0  0  0  0  0  0  0  0
   43.5500   35.7220   40.6370 O   0  0  0  0  0  0  0  0  0  0  0  0
   42.5350   33.7350   41.5840 O   0  0  0  0  0  0  0  0  0  0  0  0
   41.2930   35.9980   41.8160 O   0  0  0  0  0  0  0  0  0  0  0  0
   47.4343   33.4576   46.7841 H   0  0  0  0  0  0  0  0  0  0  0  0
   47.1424   31.3930   45.0191 H   0  0  0  0  0  0  0  0  0  0  0  0
   47.9639   31.4549   46.6450 H   0  0  0  0  0  0  0  0  0  0  0  0
   45.1205   30.6198   46.0473 H   0  0  0  0  0  0  0  0  0  0  0  0
   46.5210   29.5895   46.5981 H   0  0  0  0  0  0  0  0  0  0  0  0
   44.7632   30.2775   48.3314 H   0  0  0  0  0  0  0  0  0  0  0  0
   46.5355   30.5000   48.7062 H   0  0  0  0  0  0  0  0  0  0  0  0
   44.5235   32.3985   48.9868 H   0  0  0  0  0  0  0  0  0  0  0  0
   46.3172   32.6669   48.9796 H   0  0  0  0  0  0  0  0  0  0  0  0
   45.2130   34.1838   47.4266 H   0  0  0  0  0  0  0  0  0  0  0  0
   44.4651   32.7740   46.5786 H   0  0  0  0  0  0  0  0  0  0  0  0
   48.2097   33.0464   44.1804 H   0  0  0  0  0  0  0  0  0  0  0  0
   47.7623   34.1017   41.9235 H   0  0  0  0  0  0  0  0  0  0  0  0
   43.2342   36.1027   43.9864 H   0  0  0  0  0  0  0  0  0  0  0  0
   44.3201   36.2471   40.9708 H   0  0  0  0  0  0  0  0  0  0  0  0
   42.4629   33.2729   42.4565 H   0  0  0  0  0  0  0  0  0  0  0  0
   41.0078   36.1561   42.7508 H   0  0  0  0  0  0  0  0  0  0  0  0
  1  6  1  0
  2  1  1  0
  2  3  1  0
  3  4  1  0
  4  5  1  0
  6  5  1  0
  7  1  1  0
  8  7  2  0
  9  8  1  0
 10  9  2  0
 10 11  1  0
 11 12  2  0
 12  7  1  0
 13 11  1  0
 14 17  1  0
 14 13  1  0
 15 14  1  0
 16 14  1  0
  1 18  1  0
  2 19  1  0
  2 20  1  0
  3 21  1  0
  3 22  1  0
  4 23  1  0
  4 24  1  0
  5 25  1  0
  5 26  1  0
  6 27  1  0
  6 28  1  0
  8 29  1  0
  9 30  1  0
 13 31  1  0
 15 32  1  0
 16 33  1  0
 17 34  1  0
M  ISO  8  18  13  19  13  20  13  21  13  22  13  23  13  24  13  25  13
M  ISO  8  26  13  27  13  28  13  29  14  30  14  32   3  33   3  34   3
M  END
>  <minimizedAffinity>  (1) 
-5.33648205

>  <minimizedRMSD>  (1) 
7.65979815

$$$$
