
     RDKit          3D

 44 46  0  0  0  0  0  0  0  0999 V2000
   45.6970   31.5760   47.0050 C   0  0  0  0  0  0  0  0  0  0  0  0
   45.7710   31.9400   48.3490 C   0  0  0  0  0  0  0  0  0  0  0  0
   45.5380   31.0700   49.3950 C   0  0  0  0  0  0  0  0  0  0  0  0
   45.2180   29.7720   49.0750 C   0  0  0  0  0  0  0  0  0  0  0  0
   45.1440   29.4030   47.7270 C   0  0  0  0  0  0  0  0  0  0  0  0
   45.3790   30.2930   46.7690 N   0  0  0  0  0  0  0  0  0  0  0  0
   44.7430   36.6290   43.8430 C   0  0  0  0  0  0  0  0  0  0  0  0
   45.6960   36.4040   42.8400 C   0  0  0  0  0  0  0  0  0  0  0  0
   46.4120   35.1920   42.8540 C   0  0  0  0  0  0  0  0  0  0  0  0
   46.1460   34.2920   43.8430 N   0  0  0  0  0  0  0  0  0  0  0  0
   45.2200   34.5500   44.7890 C   0  0  0  0  0  0  0  0  0  0  0  0
   44.5060   35.7270   44.7990 N   0  0  0  0  0  0  0  0  0  0  0  0
   45.9570   32.5590   45.9620 C   0  0  0  0  0  0  0  0  0  0  0  0
   46.9930   32.4590   45.2760 O   0  0  0  0  0  0  0  0  0  0  0  0
   44.9640   33.5910   45.8080 N   0  0  0  0  0  0  0  0  0  0  0  0
   44.8060   28.0330   47.4050 C   0  0  0  0  0  0  0  0  0  0  0  0
   44.6650   27.1300   48.3520 C   0  0  0  0  0  0  0  0  0  0  0  0
   44.3250   25.6900   48.2010 C   0  0  0  0  0  0  0  0  0  0  0  0
   45.3930   24.8770   48.8810 C   0  0  0  0  0  0  0  0  0  0  0  0
   46.7860   25.2730   48.5010 C   0  0  0  0  0  0  0  0  0  0  0  0
   47.7340   24.4920   49.4040 C   0  0  0  0  0  0  0  0  0  0  0  0
   47.1080   23.3870   49.9780 O   0  0  0  0  0  0  0  0  0  0  0  0
   46.1500   23.7640   50.9160 C   0  0  0  0  0  0  0  0  0  0  0  0
   45.2670   24.8820   50.3750 C   0  0  0  0  0  0  0  0  0  0  0  0
   46.0303   32.9815   48.5898 H   0  0  0  0  0  0  0  0  0  0  0  0
   45.6056   31.4017   50.4416 H   0  0  0  0  0  0  0  0  0  0  0  0
   45.0229   29.0340   49.8670 H   0  0  0  0  0  0  0  0  0  0  0  0
   44.1763   37.5718   43.8427 H   0  0  0  0  0  0  0  0  0  0  0  0
   45.8802   37.1572   42.0598 H   0  0  0  0  0  0  0  0  0  0  0  0
   47.1684   34.9761   42.0850 H   0  0  0  0  0  0  0  0  0  0  0  0
   44.1213   33.6320   46.3988 H   0  0  0  0  0  0  0  0  0  0  0  0
   44.6649   27.7423   46.3535 H   0  0  0  0  0  0  0  0  0  0  0  0
   44.8174   27.4840   49.3823 H   0  0  0  0  0  0  0  0  0  0  0  0
   43.3498   25.4874   48.6679 H   0  0  0  0  0  0  0  0  0  0  0  0
   44.2684   25.4244   47.1351 H   0  0  0  0  0  0  0  0  0  0  0  0
   45.2203   23.8548   48.5133 H   0  0  0  0  0  0  0  0  0  0  0  0
   46.9758   25.0219   47.4470 H   0  0  0  0  0  0  0  0  0  0  0  0
   46.9326   26.3565   48.6218 H   0  0  0  0  0  0  0  0  0  0  0  0
   48.5905   24.1459   48.8068 H   0  0  0  0  0  0  0  0  0  0  0  0
   48.0617   25.1592   50.2148 H   0  0  0  0  0  0  0  0  0  0  0  0
   45.5215   22.8942   51.1579 H   0  0  0  0  0  0  0  0  0  0  0  0
   46.6656   24.1290   51.8165 H   0  0  0  0  0  0  0  0  0  0  0  0
   45.6002   25.8505   50.7762 H   0  0  0  0  0  0  0  0  0  0  0  0
   44.2201   24.7266   50.6748 H   0  0  0  0  0  0  0  0  0  0  0  0
  1  2  2  0
  2  3  1  0
  4  3  2  0
  5  4  1  0
  6  1  1  0
  6  5  2  0
  7 12  2  0
  8  9  2  0
  8  7  1  0
  9 10  1  0
 10 11  2  0
 11 12  1  0
 11 15  1  0
 13  1  1  0
 14 13  2  0
 15 13  1  0
 16  5  1  0
 16 17  2  0
 18 17  1  0
 18 19  1  0
 19 24  1  0
 20 19  1  0
 20 21  1  0
 21 22  1  0
 22 23  1  0
 24 23  1  0
  2 25  1  0
  3 26  1  0
  4 27  1  0
  7 28  1  0
  8 29  1  0
  9 30  1  0
 15 31  1  0
 16 32  1  0
 17 33  1  0
 18 34  1  0
 18 35  1  0
 19 36  1  0
 20 37  1  0
 20 38  1  0
 21 39  1  0
 21 40  1  0
 23 41  1  0
 23 42  1  0
 24 43  1  0
 24 44  1  0
M  ISO  8  25  14  26  14  27  14  28  14  29  14  30  14  34   8  35   8
M  ISO  8  36  13  37  13  38  13  39  13  40  13  41  13  42  13  43  13
M  ISO  1  44  13
M  END
>  <minimizedAffinity>  (1) 
-5.80522776

>  <minimizedRMSD>  (1) 
0.921507776

$$$$
