
     RDKit          3D

 46 49  0  0  1  0  0  0  0  0999 V2000
   47.6820   33.3950   42.9540 C   0  0  0  0  0  0  0  0  0  0  0  0
   48.5600   34.5070   42.8270 C   0  0  0  0  0  0  0  0  0  0  0  0
   49.8990   34.2860   42.5060 C   0  0  0  0  0  0  0  0  0  0  0  0
   50.2720   32.9700   42.3360 N   0  0  0  0  0  0  0  0  0  0  0  0
   49.4320   31.9370   42.4610 C   0  0  0  0  0  0  0  0  0  0  0  0
   48.1380   32.1530   42.7690 N   0  0  0  0  0  0  0  0  0  0  0  0
   46.2850   33.7160   43.3060 C   0  0  0  0  0  0  0  0  0  0  0  0
   45.6970   34.7580   42.4400 C   0  0  0  0  0  0  0  0  0  0  0  0
   45.4620   36.0630   43.1460 C   0  0  0  0  0  0  0  0  0  0  0  0
   44.5880   35.8890   44.3750 C   0  0  0  0  0  0  0  0  0  0  0  0
   44.9460   34.6840   45.1930 C   0  0  0  0  0  0  0  0  0  0  0  0
   46.2660   34.0880   44.7840 C   0  0  0  0  0  0  0  0  0  0  0  0
   49.9100   30.5320   42.2600 C   0  0  0  0  0  0  0  0  0  0  0  0
   51.1220   30.4470   41.4510 C   0  0  0  0  0  0  0  0  0  0  0  0
   51.2270   30.7620   40.1720 C   0  0  0  0  0  0  0  0  0  0  0  0
   52.4960   30.5990   39.5590 N   0  0  0  0  0  0  0  0  0  0  0  0
   53.4890   31.0960   38.6360 C   0  0  0  0  0  0  0  0  0  0  0  0
   53.5250   32.0300   37.7620 O   0  0  0  0  0  0  0  0  0  0  0  0
   54.5070   30.1140   39.0590 C   0  0  0  0  0  0  0  0  0  0  0  0
   53.4070   29.4770   39.8330 C   0  0  1  0  0  0  0  0  0  0  0  0
   53.7350   29.6050   41.6100 S   0  0  0  0  0  0  0  0  0  0  0  0
   52.1580   29.9530   42.3890 C   0  0  0  0  0  0  0  0  0  0  0  0
   50.1090   31.2560   39.3610 C   0  0  0  0  0  0  0  0  0  0  0  0
   49.1810   30.7300   38.7330 O   0  0  0  0  0  0  0  0  0  0  0  0
   49.9020   32.5920   39.1510 O   0  0  0  0  0  0  0  0  0  0  0  0
   48.1867   35.5303   42.9804 H   0  0  0  0  0  0  0  0  0  0  0  0
   50.6154   35.1133   42.3950 H   0  0  0  0  0  0  0  0  0  0  0  0
   45.6434   32.8395   43.1326 H   0  0  0  0  0  0  0  0  0  0  0  0
   44.7330   34.3902   42.0585 H   0  0  0  0  0  0  0  0  0  0  0  0
   46.4188   34.9526   41.6331 H   0  0  0  0  0  0  0  0  0  0  0  0
   46.4317   36.4806   43.4548 H   0  0  0  0  0  0  0  0  0  0  0  0
   44.9438   36.7398   42.4507 H   0  0  0  0  0  0  0  0  0  0  0  0
   44.6924   36.7833   45.0069 H   0  0  0  0  0  0  0  0  0  0  0  0
   43.5555   35.7480   44.0227 H   0  0  0  0  0  0  0  0  0  0  0  0
   45.0037   34.9791   46.2511 H   0  0  0  0  0  0  0  0  0  0  0  0
   44.1683   33.9234   45.0301 H   0  0  0  0  0  0  0  0  0  0  0  0
   46.4484   33.1826   45.3815 H   0  0  0  0  0  0  0  0  0  0  0  0
   47.0495   34.8404   44.9575 H   0  0  0  0  0  0  0  0  0  0  0  0
   50.1156   30.0884   43.2453 H   0  0  0  0  0  0  0  0  0  0  0  0
   49.1183   29.9915   41.7204 H   0  0  0  0  0  0  0  0  0  0  0  0
   54.9244   29.4976   38.2492 H   0  0  0  0  0  0  0  0  0  0  0  0
   55.4628   30.4085   39.5169 H   0  0  0  0  0  0  0  0  0  0  0  0
   53.1573   28.4302   39.6051 H   0  0  0  0  0  0  0  0  0  0  0  0
   52.3157   30.7168   43.1647 H   0  0  0  0  0  0  0  0  0  0  0  0
   51.7886   29.0027   42.8018 H   0  0  0  0  0  0  0  0  0  0  0  0
   49.1379   32.8937   38.5985 H   0  0  0  0  0  0  0  0  0  0  0  0
  1  7  1  0
  2  1  2  0
  3  2  1  0
  4  5  1  0
  4  3  2  0
  5  6  2  0
  6  1  1  0
  7 12  1  0
  8  9  1  0
  8  7  1  0
  9 10  1  0
 10 11  1  0
 12 11  1  0
 13  5  1  0
 14 13  1  0
 14 22  1  0
 15 14  2  0
 16 20  1  0
 16 15  1  0
 17 19  1  0
 17 16  1  0
 18 17  2  0
 20 19  1  0
 20 21  1  0
 21 22  1  0
 23 15  1  0
 24 23  2  0
 25 23  1  0
  2 26  1  0
  3 27  1  0
  7 28  1  0
  8 29  1  0
  8 30  1  0
  9 31  1  0
  9 32  1  0
 10 33  1  0
 10 34  1  0
 11 35  1  0
 11 36  1  0
 12 37  1  0
 12 38  1  0
 13 39  1  0
 13 40  1  0
 19 41  1  0
 19 42  1  0
 20 43  1  6
 22 44  1  0
 22 45  1  0
 25 46  1  0
M  ISO  8  26  14  27  14  28  13  29  13  30  13  31  13  32  13  33  13
M  ISO  8  34  13  35  13  36  13  37  13  38  13  39   8  40   8  41  13
M  ISO  5  42  13  43  13  44  13  45  13  46   3
M  END
>  <minimizedAffinity>  (1) 
-5.02049255

>  <minimizedRMSD>  (1) 
3.88729978

$$$$
