
     RDKit          3D

 41 43  0  0  0  0  0  0  0  0999 V2000
   45.7730   33.8690   43.1350 C   0  0  0  0  0  0  0  0  0  0  0  0
   45.0050   35.0180   42.6200 C   0  0  0  0  0  0  0  0  0  0  0  0
   45.0290   36.2100   43.5360 C   0  0  0  0  0  0  0  0  0  0  0  0
   44.5150   35.8590   44.9230 C   0  0  0  0  0  0  0  0  0  0  0  0
   45.0590   34.5640   45.4480 C   0  0  0  0  0  0  0  0  0  0  0  0
   46.1760   34.0080   44.5940 C   0  0  0  0  0  0  0  0  0  0  0  0
   47.0100   33.6060   42.3710 C   0  0  0  0  0  0  0  0  0  0  0  0
   48.2260   33.8000   43.0750 C   0  0  0  0  0  0  0  0  0  0  0  0
   49.4330   33.5600   42.4210 C   0  0  0  0  0  0  0  0  0  0  0  0
   49.3570   33.1420   41.1070 N   0  0  0  0  0  0  0  0  0  0  0  0
   48.1840   32.9680   40.4650 C   0  0  0  0  0  0  0  0  0  0  0  0
   47.0230   33.1980   41.0950 N   0  0  0  0  0  0  0  0  0  0  0  0
   48.2170   32.5320   39.1090 N   0  0  0  0  0  0  0  0  0  0  0  0
   49.4490   31.9850   38.5740 C   0  0  0  0  0  0  0  0  0  0  0  0
   49.4610   32.2650   37.0850 C   0  0  0  0  0  0  0  0  0  0  0  0
   48.8520   33.6280   36.8300 C   0  0  0  0  0  0  0  0  0  0  0  0
   47.3770   33.6520   37.1740 C   0  0  0  0  0  0  0  0  0  0  0  0
   47.0630   32.6200   38.2530 C   0  0  0  0  0  0  0  0  0  0  0  0
   45.0693   33.0312   43.0218 H   0  0  0  0  0  0  0  0  0  0  0  0
   45.4300   35.3150   41.6498 H   0  0  0  0  0  0  0  0  0  0  0  0
   43.9568   34.6958   42.5332 H   0  0  0  0  0  0  0  0  0  0  0  0
   46.0633   36.5750   43.6202 H   0  0  0  0  0  0  0  0  0  0  0  0
   44.3731   36.9842   43.1112 H   0  0  0  0  0  0  0  0  0  0  0  0
   44.8016   36.6642   45.6155 H   0  0  0  0  0  0  0  0  0  0  0  0
   43.4235   35.7463   44.8466 H   0  0  0  0  0  0  0  0  0  0  0  0
   45.4439   34.7311   46.4648 H   0  0  0  0  0  0  0  0  0  0  0  0
   44.2383   33.8317   45.4373 H   0  0  0  0  0  0  0  0  0  0  0  0
   46.4559   33.0165   44.9795 H   0  0  0  0  0  0  0  0  0  0  0  0
   47.0199   34.7118   44.6442 H   0  0  0  0  0  0  0  0  0  0  0  0
   48.2165   34.1352   44.1226 H   0  0  0  0  0  0  0  0  0  0  0  0
   50.4000   33.6970   42.9272 H   0  0  0  0  0  0  0  0  0  0  0  0
   50.3137   32.4666   39.0540 H   0  0  0  0  0  0  0  0  0  0  0  0
   49.5090   30.9036   38.7660 H   0  0  0  0  0  0  0  0  0  0  0  0
   50.4972   32.2501   36.7161 H   0  0  0  0  0  0  0  0  0  0  0  0
   48.8772   31.4950   36.5593 H   0  0  0  0  0  0  0  0  0  0  0  0
   49.3748   34.3738   37.4469 H   0  0  0  0  0  0  0  0  0  0  0  0
   48.9599   33.8587   35.7599 H   0  0  0  0  0  0  0  0  0  0  0  0
   47.1072   34.6532   37.5412 H   0  0  0  0  0  0  0  0  0  0  0  0
   46.7972   33.4102   36.2710 H   0  0  0  0  0  0  0  0  0  0  0  0
   46.1858   32.9388   38.8351 H   0  0  0  0  0  0  0  0  0  0  0  0
   46.8361   31.6423   37.8029 H   0  0  0  0  0  0  0  0  0  0  0  0
  1  6  1  0
  2  1  1  0
  2  3  1  0
  3  4  1  0
  4  5  1  0
  6  5  1  0
  7  8  2  0
  7  1  1  0
  9  8  1  0
 10  9  2  0
 11 12  2  0
 11 10  1  0
 12  7  1  0
 13 11  1  0
 14 13  1  0
 15 14  1  0
 16 15  1  0
 16 17  1  0
 17 18  1  0
 18 13  1  0
  1 19  1  0
  2 20  1  0
  2 21  1  0
  3 22  1  0
  3 23  1  0
  4 24  1  0
  4 25  1  0
  5 26  1  0
  5 27  1  0
  6 28  1  0
  6 29  1  0
  8 30  1  0
  9 31  1  0
 14 32  1  0
 14 33  1  0
 15 34  1  0
 15 35  1  0
 16 36  1  0
 16 37  1  0
 17 38  1  0
 17 39  1  0
 18 40  1  0
 18 41  1  0
M  ISO  8  19  13  20  13  21  13  22  13  23  13  24  13  25  13  26  13
M  ISO  8  27  13  28  13  29  13  30  14  31  14  32  13  33  13  34  13
M  ISO  7  35  13  36  13  37  13  38  13  39  13  40  13  41  13
M  END
>  <minimizedAffinity>  (1) 
-4.99961042

>  <minimizedRMSD>  (1) 
5.00635195

$$$$
