
     RDKit          3D

 38 40  0  0  0  0  0  0  0  0999 V2000
   46.1680   33.8480   42.9370 C   0  0  0  0  0  0  0  0  0  0  0  0
   45.4380   34.9520   42.2860 C   0  0  0  0  0  0  0  0  0  0  0  0
   45.2690   36.1590   43.1660 C   0  0  0  0  0  0  0  0  0  0  0  0
   44.5620   35.8020   44.4630 C   0  0  0  0  0  0  0  0  0  0  0  0
   45.0690   34.5260   45.0850 C   0  0  0  0  0  0  0  0  0  0  0  0
   46.3390   34.0520   44.4370 C   0  0  0  0  0  0  0  0  0  0  0  0
   47.5090   33.6270   42.3590 C   0  0  0  0  0  0  0  0  0  0  0  0
   48.5810   34.2090   43.0570 C   0  0  0  0  0  0  0  0  0  0  0  0
   49.8840   34.0410   42.5830 C   0  0  0  0  0  0  0  0  0  0  0  0
   50.0310   33.2980   41.4370 N   0  0  0  0  0  0  0  0  0  0  0  0
   48.9760   32.7470   40.7840 C   0  0  0  0  0  0  0  0  0  0  0  0
   47.7340   32.9160   41.2470 N   0  0  0  0  0  0  0  0  0  0  0  0
   49.1740   31.9840   39.5990 N   0  0  0  0  0  0  0  0  0  0  0  0
   48.2830   31.8240   38.4810 C   0  0  0  0  0  0  0  0  0  0  0  0
   49.2360   32.0290   37.3010 C   0  0  0  0  0  0  0  0  0  0  0  0
   50.6260   31.8060   37.8550 C   0  0  0  0  0  0  0  0  0  0  0  0
   50.3200   31.1800   39.2220 C   0  0  0  0  0  0  0  0  0  0  0  0
   45.5360   32.9664   42.7543 H   0  0  0  0  0  0  0  0  0  0  0  0
   45.9926   35.2528   41.3849 H   0  0  0  0  0  0  0  0  0  0  0  0
   44.4303   34.5794   42.0501 H   0  0  0  0  0  0  0  0  0  0  0  0
   46.2607   36.5730   43.4007 H   0  0  0  0  0  0  0  0  0  0  0  0
   44.6562   36.8976   42.6284 H   0  0  0  0  0  0  0  0  0  0  0  0
   44.7108   36.6232   45.1796 H   0  0  0  0  0  0  0  0  0  0  0  0
   43.4992   35.6489   44.2241 H   0  0  0  0  0  0  0  0  0  0  0  0
   45.2598   34.7029   46.1538 H   0  0  0  0  0  0  0  0  0  0  0  0
   44.3031   33.7495   44.9417 H   0  0  0  0  0  0  0  0  0  0  0  0
   46.6369   33.0970   44.8943 H   0  0  0  0  0  0  0  0  0  0  0  0
   47.1091   34.8221   44.5913 H   0  0  0  0  0  0  0  0  0  0  0  0
   48.3951   34.7929   43.9705 H   0  0  0  0  0  0  0  0  0  0  0  0
   50.7487   34.4813   43.1011 H   0  0  0  0  0  0  0  0  0  0  0  0
   47.8339   30.8200   38.4653 H   0  0  0  0  0  0  0  0  0  0  0  0
   47.4244   32.5115   38.4893 H   0  0  0  0  0  0  0  0  0  0  0  0
   49.1406   33.0503   36.9037 H   0  0  0  0  0  0  0  0  0  0  0  0
   49.0128   31.3392   36.4738 H   0  0  0  0  0  0  0  0  0  0  0  0
   51.2051   31.1192   37.2202 H   0  0  0  0  0  0  0  0  0  0  0  0
   51.2367   32.7193   37.9090 H   0  0  0  0  0  0  0  0  0  0  0  0
   50.0638   30.1136   39.1374 H   0  0  0  0  0  0  0  0  0  0  0  0
   51.1544   31.1870   39.9387 H   0  0  0  0  0  0  0  0  0  0  0  0
  1  6  1  0
  2  1  1  0
  2  3  1  0
  3  4  1  0
  4  5  1  0
  6  5  1  0
  7  1  1  0
  7  8  2  0
  9  8  1  0
 10  9  2  0
 11 12  2  0
 11 10  1  0
 12  7  1  0
 13 11  1  0
 14 13  1  0
 15 16  1  0
 15 14  1  0
 16 17  1  0
 17 13  1  0
  1 18  1  0
  2 19  1  0
  2 20  1  0
  3 21  1  0
  3 22  1  0
  4 23  1  0
  4 24  1  0
  5 25  1  0
  5 26  1  0
  6 27  1  0
  6 28  1  0
  8 29  1  0
  9 30  1  0
 14 31  1  0
 14 32  1  0
 15 33  1  0
 15 34  1  0
 16 35  1  0
 16 36  1  0
 17 37  1  0
 17 38  1  0
M  ISO  8  18  13  19  13  20  13  21  13  22  13  23  13  24  13  25  13
M  ISO  8  26  13  27  13  28  13  29  14  30  14  31  13  32  13  33  13
M  ISO  5  34  13  35  13  36  13  37  13  38  13
M  END
>  <minimizedAffinity>  (1) 
-4.58184242

>  <minimizedRMSD>  (1) 
3.96912193

$$$$
