
     RDKit          3D

 30 31  0  0  0  0  0  0  0  0999 V2000
   46.4420   33.7900   43.2760 C   0  0  0  0  0  0  0  0  0  0  0  0
   45.7510   34.7910   42.4410 C   0  0  0  0  0  0  0  0  0  0  0  0
   45.4000   36.0510   43.1790 C   0  0  0  0  0  0  0  0  0  0  0  0
   44.5740   35.7770   44.4230 C   0  0  0  0  0  0  0  0  0  0  0  0
   44.9880   34.5370   45.1610 C   0  0  0  0  0  0  0  0  0  0  0  0
   46.3850   34.1030   44.7670 C   0  0  0  0  0  0  0  0  0  0  0  0
   47.8620   33.6100   42.9150 C   0  0  0  0  0  0  0  0  0  0  0  0
   48.6030   34.7960   42.7190 C   0  0  0  0  0  0  0  0  0  0  0  0
   49.9540   34.7070   42.3840 C   0  0  0  0  0  0  0  0  0  0  0  0
   50.4810   33.4370   42.2660 N   0  0  0  0  0  0  0  0  0  0  0  0
   49.7460   32.3240   42.4600 C   0  0  0  0  0  0  0  0  0  0  0  0
   48.4510   32.4150   42.7800 N   0  0  0  0  0  0  0  0  0  0  0  0
   51.4860   30.9530   41.4040 C   0  0  0  0  0  0  0  0  0  0  0  0
   51.8890   31.9470   40.7230 O   0  0  0  0  0  0  0  0  0  0  0  0
   50.3970   31.0700   42.3100 N   0  0  0  0  0  0  0  0  0  0  0  0
   45.8867   32.8626   43.0721 H   0  0  0  0  0  0  0  0  0  0  0  0
   44.8226   34.3426   42.0574 H   0  0  0  0  0  0  0  0  0  0  0  0
   46.4443   35.0722   41.6346 H   0  0  0  0  0  0  0  0  0  0  0  0
   46.3299   36.5581   43.4760 H   0  0  0  0  0  0  0  0  0  0  0  0
   44.7980   36.6794   42.5061 H   0  0  0  0  0  0  0  0  0  0  0  0
   44.6748   36.6358   45.1029 H   0  0  0  0  0  0  0  0  0  0  0  0
   43.5362   35.6231   44.0924 H   0  0  0  0  0  0  0  0  0  0  0  0
   44.9671   34.7395   46.2420 H   0  0  0  0  0  0  0  0  0  0  0  0
   44.2875   33.7290   44.9030 H   0  0  0  0  0  0  0  0  0  0  0  0
   46.6597   33.2033   45.3372 H   0  0  0  0  0  0  0  0  0  0  0  0
   47.0885   34.9192   44.9880 H   0  0  0  0  0  0  0  0  0  0  0  0
   48.1205   35.7784   42.8292 H   0  0  0  0  0  0  0  0  0  0  0  0
   50.5689   35.6045   42.2219 H   0  0  0  0  0  0  0  0  0  0  0  0
   51.9902   29.9820   41.2901 H   0  0  0  0  0  0  0  0  0  0  0  0
   50.0826   30.2531   42.8529 H   0  0  0  0  0  0  0  0  0  0  0  0
  1  6  1  0
  2  3  1  0
  2  1  1  0
  3  4  1  0
  4  5  1  0
  6  5  1  0
  7  1  1  0
  8  7  2  0
  9  8  1  0
 10  9  2  0
 10 11  1  0
 11 12  2  0
 12  7  1  0
 13 15  1  0
 14 13  2  0
 15 11  1  0
  1 16  1  0
  2 17  1  0
  2 18  1  0
  3 19  1  0
  3 20  1  0
  4 21  1  0
  4 22  1  0
  5 23  1  0
  5 24  1  0
  6 25  1  0
  6 26  1  0
  8 27  1  0
  9 28  1  0
 13 29  1  0
 15 30  1  0
M  ISO  8  16  13  17  13  18  13  19  13  20  13  21  13  22  13  23  13
M  ISO  6  24  13  25  13  26  13  27  14  28  14  29   6
M  END
>  <minimizedAffinity>  (1) 
-4.46078157

>  <minimizedRMSD>  (1) 
2.15598583

$$$$
