
     RDKit          3D

 33 35  0  0  0  0  0  0  0  0999 V2000
   46.3650   33.7800   43.2370 C   0  0  0  0  0  0  0  0  0  0  0  0
   45.7190   34.8240   42.4190 C   0  0  0  0  0  0  0  0  0  0  0  0
   45.4000   36.0740   43.1730 C   0  0  0  0  0  0  0  0  0  0  0  0
   44.5730   35.8140   44.4170 C   0  0  0  0  0  0  0  0  0  0  0  0
   44.9900   34.5800   45.1770 C   0  0  0  0  0  0  0  0  0  0  0  0
   46.3410   34.0870   44.7310 C   0  0  0  0  0  0  0  0  0  0  0  0
   47.7760   33.5530   42.8710 C   0  0  0  0  0  0  0  0  0  0  0  0
   48.5760   34.7110   42.7340 C   0  0  0  0  0  0  0  0  0  0  0  0
   49.9250   34.5830   42.3940 C   0  0  0  0  0  0  0  0  0  0  0  0
   50.3960   33.3040   42.2110 N   0  0  0  0  0  0  0  0  0  0  0  0
   49.6040   32.2110   42.3500 C   0  0  0  0  0  0  0  0  0  0  0  0
   48.3120   32.3430   42.6740 N   0  0  0  0  0  0  0  0  0  0  0  0
   50.2250   30.8610   42.1250 C   0  0  0  0  0  0  0  0  0  0  0  0
   50.4330   30.0200   43.4060 C   0  0  0  0  0  0  0  0  0  0  0  0
   51.5780   30.5570   42.6350 C   0  0  0  0  0  0  0  0  0  0  0  0
   45.7666   32.8813   43.0265 H   0  0  0  0  0  0  0  0  0  0  0  0
   44.7816   34.4155   42.0136 H   0  0  0  0  0  0  0  0  0  0  0  0
   46.4352   35.1007   41.6313 H   0  0  0  0  0  0  0  0  0  0  0  0
   46.3432   36.5547   43.4719 H   0  0  0  0  0  0  0  0  0  0  0  0
   44.8061   36.7193   42.5090 H   0  0  0  0  0  0  0  0  0  0  0  0
   44.6693   36.6823   45.0854 H   0  0  0  0  0  0  0  0  0  0  0  0
   43.5369   35.6516   44.0853 H   0  0  0  0  0  0  0  0  0  0  0  0
   45.0330   34.8186   46.2499 H   0  0  0  0  0  0  0  0  0  0  0  0
   44.2519   33.7883   44.9810 H   0  0  0  0  0  0  0  0  0  0  0  0
   46.5874   33.1705   45.2872 H   0  0  0  0  0  0  0  0  0  0  0  0
   47.0778   34.8792   44.9300 H   0  0  0  0  0  0  0  0  0  0  0  0
   48.1384   35.7074   42.8943 H   0  0  0  0  0  0  0  0  0  0  0  0
   50.5775   35.4610   42.2785 H   0  0  0  0  0  0  0  0  0  0  0  0
   49.7503   30.7502   41.1389 H   0  0  0  0  0  0  0  0  0  0  0  0
   50.1826   30.4396   44.3915 H   0  0  0  0  0  0  0  0  0  0  0  0
   50.1160   29.0263   43.7555 H   0  0  0  0  0  0  0  0  0  0  0  0
   52.2252   29.8661   42.0748 H   0  0  0  0  0  0  0  0  0  0  0  0
   52.4474   31.1771   42.8988 H   0  0  0  0  0  0  0  0  0  0  0  0
  1  6  1  0
  2  3  1  0
  2  1  1  0
  3  4  1  0
  4  5  1  0
  6  5  1  0
  7  1  1  0
  8  7  2  0
  9  8  1  0
 10 11  1  0
 10  9  2  0
 11 12  2  0
 12  7  1  0
 13 11  1  0
 13 15  1  0
 13 14  1  0
 15 14  1  0
  1 16  1  0
  2 17  1  0
  2 18  1  0
  3 19  1  0
  3 20  1  0
  4 21  1  0
  4 22  1  0
  5 23  1  0
  5 24  1  0
  6 25  1  0
  6 26  1  0
  8 27  1  0
  9 28  1  0
 13 29  1  0
 14 30  1  0
 14 31  1  0
 15 32  1  0
 15 33  1  0
M  ISO  8  16  13  17  13  18  13  19  13  20  13  21  13  22  13  23  13
M  ISO  8  24  13  25  13  26  13  27  14  28  14  29  13  30  13  31  13
M  ISO  2  32  13  33  13
M  END
>  <minimizedAffinity>  (1) 
-4.17900991

>  <minimizedRMSD>  (1) 
1.9882046

$$$$
