
     RDKit          3D

 33 34  0  0  0  0  0  0  0  0999 V2000
   46.4310   33.8100   43.2170 C   0  0  0  0  0  0  0  0  0  0  0  0
   45.7600   34.8440   42.4030 C   0  0  0  0  0  0  0  0  0  0  0  0
   45.3820   36.0680   43.1770 C   0  0  0  0  0  0  0  0  0  0  0  0
   44.5520   35.7680   44.4060 C   0  0  0  0  0  0  0  0  0  0  0  0
   45.0060   34.5260   45.1480 C   0  0  0  0  0  0  0  0  0  0  0  0
   46.3880   34.0910   44.7140 C   0  0  0  0  0  0  0  0  0  0  0  0
   47.8550   33.6550   42.8580 C   0  0  0  0  0  0  0  0  0  0  0  0
   48.6140   34.8330   42.7540 C   0  0  0  0  0  0  0  0  0  0  0  0
   49.9690   34.7450   42.4190 C   0  0  0  0  0  0  0  0  0  0  0  0
   50.4810   33.4950   42.2110 N   0  0  0  0  0  0  0  0  0  0  0  0
   49.7270   32.3650   42.3180 C   0  0  0  0  0  0  0  0  0  0  0  0
   48.4370   32.4750   42.6380 N   0  0  0  0  0  0  0  0  0  0  0  0
   50.3180   31.0500   42.0870 C   0  0  0  0  0  0  0  0  0  0  0  0
   50.7120   30.5950   40.9310 C   0  0  0  0  0  0  0  0  0  0  0  0
   50.7570   31.0760   39.5320 C   0  0  0  0  0  0  0  0  0  0  0  0
   45.8644   32.8935   42.9956 H   0  0  0  0  0  0  0  0  0  0  0  0
   44.8457   34.4086   41.9736 H   0  0  0  0  0  0  0  0  0  0  0  0
   46.4769   35.1606   41.6311 H   0  0  0  0  0  0  0  0  0  0  0  0
   46.3033   36.5785   43.4943 H   0  0  0  0  0  0  0  0  0  0  0  0
   44.7671   36.6948   42.5144 H   0  0  0  0  0  0  0  0  0  0  0  0
   44.6179   36.6270   45.0900 H   0  0  0  0  0  0  0  0  0  0  0  0
   43.5215   35.5863   44.0667 H   0  0  0  0  0  0  0  0  0  0  0  0
   45.0219   34.7407   46.2267 H   0  0  0  0  0  0  0  0  0  0  0  0
   44.3020   33.7124   44.9192 H   0  0  0  0  0  0  0  0  0  0  0  0
   46.6642   33.1764   45.2591 H   0  0  0  0  0  0  0  0  0  0  0  0
   47.0955   34.9032   44.9370 H   0  0  0  0  0  0  0  0  0  0  0  0
   48.1478   35.8130   42.9340 H   0  0  0  0  0  0  0  0  0  0  0  0
   50.5962   35.6440   42.3268 H   0  0  0  0  0  0  0  0  0  0  0  0
   50.4406   30.3903   42.9587 H   0  0  0  0  0  0  0  0  0  0  0  0
   51.1222   29.5781   41.0189 H   0  0  0  0  0  0  0  0  0  0  0  0
   50.8595   32.1712   39.5239 H   0  0  0  0  0  0  0  0  0  0  0  0
   51.6167   30.6235   39.0162 H   0  0  0  0  0  0  0  0  0  0  0  0
   49.8283   30.7908   39.0162 H   0  0  0  0  0  0  0  0  0  0  0  0
  1  6  1  0
  2  3  1  0
  2  1  1  0
  3  4  1  0
  4  5  1  0
  6  5  1  0
  7  1  1  0
  8  7  2  0
  9  8  1  0
 10 11  1  0
 10  9  2  0
 11 12  2  0
 12  7  1  0
 13 11  1  0
 14 13  2  0
 15 14  1  0
  1 16  1  0
  2 17  1  0
  2 18  1  0
  3 19  1  0
  3 20  1  0
  4 21  1  0
  4 22  1  0
  5 23  1  0
  5 24  1  0
  6 25  1  0
  6 26  1  0
  8 27  1  0
  9 28  1  0
 13 29  1  0
 14 30  1  0
 15 31  1  0
 15 32  1  0
 15 33  1  0
M  ISO  8  16  13  17  13  18  13  19  13  20  13  21  13  22  13  23  13
M  ISO  8  24  13  25  13  26  13  27  14  28  14  31   8  32   8  33   8
M  END
>  <minimizedAffinity>  (1) 
-4.1276536

>  <minimizedRMSD>  (1) 
2.33787847

$$$$
