
     RDKit          3D

 32 33  0  0  0  0  0  0  0  0999 V2000
   46.5400   33.7390   43.1830 C   0  0  0  0  0  0  0  0  0  0  0  0
   45.8470   34.7350   42.3370 C   0  0  0  0  0  0  0  0  0  0  0  0
   45.4140   35.9600   43.0760 C   0  0  0  0  0  0  0  0  0  0  0  0
   44.5860   35.6490   44.3100 C   0  0  0  0  0  0  0  0  0  0  0  0
   45.0690   34.4460   45.0770 C   0  0  0  0  0  0  0  0  0  0  0  0
   46.4620   34.0490   44.6700 C   0  0  0  0  0  0  0  0  0  0  0  0
   47.9670   33.6040   42.8320 C   0  0  0  0  0  0  0  0  0  0  0  0
   48.7000   34.8060   42.7670 C   0  0  0  0  0  0  0  0  0  0  0  0
   50.0570   34.7880   42.4470 C   0  0  0  0  0  0  0  0  0  0  0  0
   50.6050   33.5520   42.2090 N   0  0  0  0  0  0  0  0  0  0  0  0
   49.8880   32.4160   42.2770 C   0  0  0  0  0  0  0  0  0  0  0  0
   48.5710   32.4410   42.5890 N   0  0  0  0  0  0  0  0  0  0  0  0
   50.6350   31.1720   41.9930 C   0  0  0  0  0  0  0  0  0  0  0  0
   51.7270   31.3530   40.9950 C   0  0  0  0  0  0  0  0  0  0  0  0
   46.0050   32.7991   42.9822 H   0  0  0  0  0  0  0  0  0  0  0  0
   44.9555   34.2597   41.9018 H   0  0  0  0  0  0  0  0  0  0  0  0
   46.5672   35.0610   41.5721 H   0  0  0  0  0  0  0  0  0  0  0  0
   46.3104   36.5166   43.3869 H   0  0  0  0  0  0  0  0  0  0  0  0
   44.7804   36.5473   42.3951 H   0  0  0  0  0  0  0  0  0  0  0  0
   44.6174   36.5222   44.9782 H   0  0  0  0  0  0  0  0  0  0  0  0
   43.5670   35.4212   43.9639 H   0  0  0  0  0  0  0  0  0  0  0  0
   45.0654   34.6831   46.1511 H   0  0  0  0  0  0  0  0  0  0  0  0
   44.3947   33.6054   44.8565 H   0  0  0  0  0  0  0  0  0  0  0  0
   46.7594   33.1550   45.2378 H   0  0  0  0  0  0  0  0  0  0  0  0
   47.1375   34.8905   44.8835 H   0  0  0  0  0  0  0  0  0  0  0  0
   48.1987   35.7639   42.9699 H   0  0  0  0  0  0  0  0  0  0  0  0
   50.6536   35.7103   42.3887 H   0  0  0  0  0  0  0  0  0  0  0  0
   51.0775   30.8087   42.9322 H   0  0  0  0  0  0  0  0  0  0  0  0
   49.9198   30.4537   41.5657 H   0  0  0  0  0  0  0  0  0  0  0  0
   52.6808   31.5111   41.5197 H   0  0  0  0  0  0  0  0  0  0  0  0
   51.8000   30.4547   40.3643 H   0  0  0  0  0  0  0  0  0  0  0  0
   51.5062   32.2268   40.3643 H   0  0  0  0  0  0  0  0  0  0  0  0
  1  6  1  0
  2  3  1  0
  2  1  1  0
  3  4  1  0
  4  5  1  0
  6  5  1  0
  7  1  1  0
  8  7  2  0
  9  8  1  0
 10 11  1  0
 10  9  2  0
 11 12  2  0
 12  7  1  0
 13 11  1  0
 14 13  1  0
  1 15  1  0
  2 16  1  0
  2 17  1  0
  3 18  1  0
  3 19  1  0
  4 20  1  0
  4 21  1  0
  5 22  1  0
  5 23  1  0
  6 24  1  0
  6 25  1  0
  8 26  1  0
  9 27  1  0
 13 28  1  0
 13 29  1  0
 14 30  1  0
 14 31  1  0
 14 32  1  0
M  ISO  8  15  13  16  13  17  13  18  13  19  13  20  13  21  13  22  13
M  ISO  8  23  13  24  13  25  13  26  14  27  14  28   8  29   8  30   8
M  ISO  2  31   8  32   8
M  END
>  <minimizedAffinity>  (1) 
-4.07145023

>  <minimizedRMSD>  (1) 
2.13617992

$$$$
