
     RDKit          3D

 27 28  0  0  0  0  0  0  0  0999 V2000
   46.5450   33.6140   42.9540 C   0  0  0  0  0  0  0  0  0  0  0  0
   45.8670   34.6610   42.1710 C   0  0  0  0  0  0  0  0  0  0  0  0
   45.5420   35.8910   42.9680 C   0  0  0  0  0  0  0  0  0  0  0  0
   44.7200   35.5760   44.2030 C   0  0  0  0  0  0  0  0  0  0  0  0
   45.1860   34.3470   44.9390 C   0  0  0  0  0  0  0  0  0  0  0  0
   46.5290   33.8780   44.4540 C   0  0  0  0  0  0  0  0  0  0  0  0
   47.9540   33.4200   42.5620 C   0  0  0  0  0  0  0  0  0  0  0  0
   48.8260   34.5050   42.8270 C   0  0  0  0  0  0  0  0  0  0  0  0
   50.1740   34.3890   42.4920 C   0  0  0  0  0  0  0  0  0  0  0  0
   50.5770   33.2090   41.9160 N   0  0  0  0  0  0  0  0  0  0  0  0
   49.7150   32.1870   41.6760 C   0  0  0  0  0  0  0  0  0  0  0  0
   48.4240   32.3010   41.9980 N   0  0  0  0  0  0  0  0  0  0  0  0
   50.2040   31.0230   41.0880 O   0  0  0  0  0  0  0  0  0  0  0  0
   45.9626   32.7085   42.7285 H   0  0  0  0  0  0  0  0  0  0  0  0
   46.5223   34.9504   41.3363 H   0  0  0  0  0  0  0  0  0  0  0  0
   44.9120   34.2384   41.8256 H   0  0  0  0  0  0  0  0  0  0  0  0
   46.4823   36.3683   43.2812 H   0  0  0  0  0  0  0  0  0  0  0  0
   44.9461   36.5587   42.3284 H   0  0  0  0  0  0  0  0  0  0  0  0
   44.7781   36.4347   44.8880 H   0  0  0  0  0  0  0  0  0  0  0  0
   43.6917   35.3798   43.8652 H   0  0  0  0  0  0  0  0  0  0  0  0
   45.2571   34.5805   46.0116 H   0  0  0  0  0  0  0  0  0  0  0  0
   44.4578   33.5433   44.7552 H   0  0  0  0  0  0  0  0  0  0  0  0
   46.7889   32.9471   44.9793 H   0  0  0  0  0  0  0  0  0  0  0  0
   47.2578   34.6752   44.6620 H   0  0  0  0  0  0  0  0  0  0  0  0
   48.4442   35.4265   43.2909 H   0  0  0  0  0  0  0  0  0  0  0  0
   50.8845   35.2073   42.6808 H   0  0  0  0  0  0  0  0  0  0  0  0
   49.5924   30.2664   40.9046 H   0  0  0  0  0  0  0  0  0  0  0  0
  1  6  1  0
  2  1  1  0
  2  3  1  0
  3  4  1  0
  4  5  1  0
  6  5  1  0
  7  8  2  0
  7  1  1  0
  9  8  1  0
 10  9  2  0
 11 10  1  0
 11 12  2  0
 12  7  1  0
 13 11  1  0
  1 14  1  0
  2 15  1  0
  2 16  1  0
  3 17  1  0
  3 18  1  0
  4 19  1  0
  4 20  1  0
  5 21  1  0
  5 22  1  0
  6 23  1  0
  6 24  1  0
  8 25  1  0
  9 26  1  0
 13 27  1  0
M  ISO  8  14  13  15  13  16  13  17  13  18  13  19  13  20  13  21  13
M  ISO  6  22  13  23  13  24  13  25  14  26  14  27   3
M  END
>  <minimizedAffinity>  (1) 
-3.96520329

>  <minimizedRMSD>  (1) 
1.9184531

$$$$
