
     RDKit          3D

 43 46  0  0  1  0  0  0  0  0999 V2000
   47.8910   33.7380   42.8730 C   0  0  0  0  0  0  0  0  0  0  0  0
   48.5870   34.9460   42.7060 C   0  0  0  0  0  0  0  0  0  0  0  0
   49.9580   34.9260   42.3810 C   0  0  0  0  0  0  0  0  0  0  0  0
   50.5280   33.6840   42.2500 N   0  0  0  0  0  0  0  0  0  0  0  0
   49.8140   32.5290   42.4220 C   0  0  0  0  0  0  0  0  0  0  0  0
   48.5260   32.5760   42.7250 N   0  0  0  0  0  0  0  0  0  0  0  0
   46.4610   33.8830   43.2170 C   0  0  0  0  0  0  0  0  0  0  0  0
   45.7610   34.8910   42.4200 C   0  0  0  0  0  0  0  0  0  0  0  0
   45.3280   36.0870   43.1850 C   0  0  0  0  0  0  0  0  0  0  0  0
   44.5380   35.7520   44.4370 C   0  0  0  0  0  0  0  0  0  0  0  0
   44.9860   34.4880   45.1300 C   0  0  0  0  0  0  0  0  0  0  0  0
   46.4140   34.1510   44.7310 C   0  0  0  0  0  0  0  0  0  0  0  0
   50.5780   31.3040   42.2530 C   0  0  0  0  0  0  0  0  0  0  0  0
   50.3000   30.5330   41.1790 N   0  0  0  0  0  0  0  0  0  0  0  0
   51.0910   29.4510   41.1730 C   0  0  0  0  0  0  0  0  0  0  0  0
   51.8800   29.5540   42.2700 N   0  0  0  0  0  0  0  0  0  0  0  0
   51.5690   30.6840   42.9340 N   0  0  0  0  0  0  0  0  0  0  0  0
   54.5610   29.7100   41.5990 O   0  0  0  0  0  0  0  0  0  0  0  0
   54.2530   29.2800   42.7440 C   0  0  0  0  0  0  0  0  0  0  0  0
   52.9040   28.6520   42.7250 C   0  0  1  0  0  0  0  0  0  0  0  0
   52.6910   28.3970   44.2050 C   0  0  0  0  0  0  0  0  0  0  0  0
   54.0990   28.1560   44.7160 C   0  0  0  0  0  0  0  0  0  0  0  0
   54.8290   29.2220   44.0590 N   0  0  0  0  0  0  0  0  0  0  0  0
   48.0633   35.9056   42.8286 H   0  0  0  0  0  0  0  0  0  0  0  0
   50.5371   35.8506   42.2406 H   0  0  0  0  0  0  0  0  0  0  0  0
   45.9100   32.9640   42.9685 H   0  0  0  0  0  0  0  0  0  0  0  0
   44.8682   34.4224   41.9802 H   0  0  0  0  0  0  0  0  0  0  0  0
   46.4769   35.2451   41.6636 H   0  0  0  0  0  0  0  0  0  0  0  0
   46.2230   36.6546   43.4796 H   0  0  0  0  0  0  0  0  0  0  0  0
   44.6630   36.6674   42.5286 H   0  0  0  0  0  0  0  0  0  0  0  0
   44.6407   36.5883   45.1441 H   0  0  0  0  0  0  0  0  0  0  0  0
   43.4974   35.5878   44.1204 H   0  0  0  0  0  0  0  0  0  0  0  0
   44.9374   34.6335   46.2192 H   0  0  0  0  0  0  0  0  0  0  0  0
   44.3246   33.6608   44.8328 H   0  0  0  0  0  0  0  0  0  0  0  0
   46.7471   33.2546   45.2747 H   0  0  0  0  0  0  0  0  0  0  0  0
   47.0778   34.9919   44.9803 H   0  0  0  0  0  0  0  0  0  0  0  0
   51.0983   28.6421   40.4276 H   0  0  0  0  0  0  0  0  0  0  0  0
   52.8502   27.7785   42.0585 H   0  0  0  0  0  0  0  0  0  0  0  0
   52.2366   29.2706   44.6953 H   0  0  0  0  0  0  0  0  0  0  0  0
   52.0074   27.5591   44.4065 H   0  0  0  0  0  0  0  0  0  0  0  0
   54.1508   28.2485   45.8109 H   0  0  0  0  0  0  0  0  0  0  0  0
   54.4874   27.1488   44.5047 H   0  0  0  0  0  0  0  0  0  0  0  0
   55.5860   29.8037   44.4456 H   0  0  0  0  0  0  0  0  0  0  0  0
  1  7  1  0
  2  1  2  0
  3  2  1  0
  4  3  2  0
  4  5  1  0
  5  6  2  0
  6  1  1  0
  7 12  1  0
  8  9  1  0
  8  7  1  0
  9 10  1  0
 10 11  1  0
 12 11  1  0
 13  5  1  0
 13 17  2  0
 14 13  1  0
 15 14  2  0
 15 16  1  0
 16 17  1  0
 18 19  2  0
 19 23  1  0
 20 16  1  0
 20 19  1  0
 20 21  1  0
 21 22  1  0
 23 22  1  0
  2 24  1  0
  3 25  1  0
  7 26  1  0
  8 27  1  0
  8 28  1  0
  9 29  1  0
  9 30  1  0
 10 31  1  0
 10 32  1  0
 11 33  1  0
 11 34  1  0
 12 35  1  0
 12 36  1  0
 15 37  1  0
 20 38  1  6
 21 39  1  0
 21 40  1  0
 22 41  1  0
 22 42  1  0
 23 43  1  0
M  ISO  8  24  14  25  14  26  13  27  13  28  13  29  13  30  13  31  13
M  ISO  8  32  13  33  13  34  13  35  13  36  13  37  14  38  13  39  13
M  ISO  4  40  13  41  13  42  13  43  10
M  END
>  <minimizedAffinity>  (1) 
-4.44426346

>  <minimizedRMSD>  (1) 
2.37079883

$$$$
