
     RDKit          3D

 51 54  0  0  0  0  0  0  0  0999 V2000
   46.8650   33.6140   42.2080 C   0  0  0  0  0  0  0  0  0  0  0  0
   46.7720   34.4000   41.0210 C   0  0  0  0  0  0  0  0  0  0  0  0
   47.7970   34.3300   40.0690 C   0  0  0  0  0  0  0  0  0  0  0  0
   48.8420   33.4870   40.3610 N   0  0  0  0  0  0  0  0  0  0  0  0
   48.8910   32.7460   41.5220 C   0  0  0  0  0  0  0  0  0  0  0  0
   47.9160   32.8250   42.4080 N   0  0  0  0  0  0  0  0  0  0  0  0
   45.7360   33.7720   43.1350 C   0  0  0  0  0  0  0  0  0  0  0  0
   44.8470   34.8800   42.8360 C   0  0  0  0  0  0  0  0  0  0  0  0
   44.8730   35.9840   43.8160 C   0  0  0  0  0  0  0  0  0  0  0  0
   44.6410   35.5090   45.2460 C   0  0  0  0  0  0  0  0  0  0  0  0
   45.2530   34.1890   45.5550 C   0  0  0  0  0  0  0  0  0  0  0  0
   46.3560   33.8670   44.5550 C   0  0  0  0  0  0  0  0  0  0  0  0
   50.0780   31.9180   41.6500 C   0  0  0  0  0  0  0  0  0  0  0  0
   50.9370   31.8640   40.6120 N   0  0  0  0  0  0  0  0  0  0  0  0
   51.9630   31.0430   40.9410 C   0  0  0  0  0  0  0  0  0  0  0  0
   51.7350   30.5900   42.1870 N   0  0  0  0  0  0  0  0  0  0  0  0
   50.5820   31.1190   42.6320 N   0  0  0  0  0  0  0  0  0  0  0  0
   52.5520   29.6780   42.9850 C   0  0  0  0  0  0  0  0  0  0  0  0
   52.2320   29.7270   44.4550 C   0  0  0  0  0  0  0  0  0  0  0  0
   51.9960   28.3020   44.9410 C   0  0  0  0  0  0  0  0  0  0  0  0
   53.2370   27.4730   44.9330 C   0  0  0  0  0  0  0  0  0  0  0  0
   54.3830   28.1180   45.6800 C   0  0  0  0  0  0  0  0  0  0  0  0
   54.6160   29.5400   45.2570 C   0  0  0  0  0  0  0  0  0  0  0  0
   53.3200   30.3040   45.3030 C   0  0  0  0  0  0  0  0  0  0  0  0
   45.9037   35.0547   40.8551 H   0  0  0  0  0  0  0  0  0  0  0  0
   47.7671   34.9172   39.1393 H   0  0  0  0  0  0  0  0  0  0  0  0
   45.0648   32.9056   43.0409 H   0  0  0  0  0  0  0  0  0  0  0  0
   45.1294   35.2885   41.8545 H   0  0  0  0  0  0  0  0  0  0  0  0
   43.8264   34.4704   42.8620 H   0  0  0  0  0  0  0  0  0  0  0  0
   45.8549   36.4771   43.7642 H   0  0  0  0  0  0  0  0  0  0  0  0
   44.0561   36.6745   43.5593 H   0  0  0  0  0  0  0  0  0  0  0  0
   45.0673   36.2562   45.9315 H   0  0  0  0  0  0  0  0  0  0  0  0
   43.5542   35.3908   45.3683 H   0  0  0  0  0  0  0  0  0  0  0  0
   45.6794   34.2158   46.5686 H   0  0  0  0  0  0  0  0  0  0  0  0
   44.4765   33.4125   45.4915 H   0  0  0  0  0  0  0  0  0  0  0  0
   46.8243   32.9071   44.8183 H   0  0  0  0  0  0  0  0  0  0  0  0
   47.1201   34.6581   44.5757 H   0  0  0  0  0  0  0  0  0  0  0  0
   52.8251   30.7925   40.3054 H   0  0  0  0  0  0  0  0  0  0  0  0
   52.3842   28.6523   42.6247 H   0  0  0  0  0  0  0  0  0  0  0  0
   53.6001   29.9909   42.8681 H   0  0  0  0  0  0  0  0  0  0  0  0
   51.3518   30.3789   44.5565 H   0  0  0  0  0  0  0  0  0  0  0  0
   51.6069   28.3416   45.9691 H   0  0  0  0  0  0  0  0  0  0  0  0
   51.2803   27.8318   44.2505 H   0  0  0  0  0  0  0  0  0  0  0  0
   53.0140   26.5035   45.4024 H   0  0  0  0  0  0  0  0  0  0  0  0
   53.5500   27.3591   43.8846 H   0  0  0  0  0  0  0  0  0  0  0  0
   54.1560   28.1026   46.7562 H   0  0  0  0  0  0  0  0  0  0  0  0
   55.2950   27.5471   45.4514 H   0  0  0  0  0  0  0  0  0  0  0  0
   55.0130   29.5556   44.2312 H   0  0  0  0  0  0  0  0  0  0  0  0
   55.3387   30.0088   45.9410 H   0  0  0  0  0  0  0  0  0  0  0  0
   53.5141   31.3314   44.9614 H   0  0  0  0  0  0  0  0  0  0  0  0
   52.9651   30.2576   46.3432 H   0  0  0  0  0  0  0  0  0  0  0  0
  1  6  1  0
  1  7  1  0
  2  1  2  0
  3  4  2  0
  3  2  1  0
  4  5  1  0
  5 13  1  0
  5  6  2  0
  7 12  1  0
  8  7  1  0
  8  9  1  0
  9 10  1  0
 10 11  1  0
 12 11  1  0
 13 17  2  0
 14 15  2  0
 14 13  1  0
 15 16  1  0
 16 17  1  0
 16 18  1  0
 18 19  1  0
 19 20  1  0
 19 24  1  0
 21 20  1  0
 21 22  1  0
 23 24  1  0
 23 22  1  0
  2 25  1  0
  3 26  1  0
  7 27  1  0
  8 28  1  0
  8 29  1  0
  9 30  1  0
  9 31  1  0
 10 32  1  0
 10 33  1  0
 11 34  1  0
 11 35  1  0
 12 36  1  0
 12 37  1  0
 15 38  1  0
 18 39  1  0
 18 40  1  0
 19 41  1  0
 20 42  1  0
 20 43  1  0
 21 44  1  0
 21 45  1  0
 22 46  1  0
 22 47  1  0
 23 48  1  0
 23 49  1  0
 24 50  1  0
 24 51  1  0
M  ISO  8  25  14  26  14  27  13  28  13  29  13  30  13  31  13  32  13
M  ISO  8  33  13  34  13  35  13  36  13  37  13  38  14  39   8  40   8
M  ISO  8  41  13  42  13  43  13  44  13  45  13  46  13  47  13  48  13
M  ISO  3  49  13  50  13  51  13
M  END
>  <minimizedAffinity>  (1) 
-4.5894804

>  <minimizedRMSD>  (1) 
1.83667827

$$$$
