
     RDKit          3D

 42 44  0  0  0  0  0  0  0  0999 V2000
   45.6200   31.6670   47.1250 C   0  0  0  0  0  0  0  0  0  0  0  0
   45.5420   32.1380   48.4520 C   0  0  0  0  0  0  0  0  0  0  0  0
   45.3110   31.3090   49.5340 C   0  0  0  0  0  0  0  0  0  0  0  0
   45.1530   29.9670   49.2800 C   0  0  0  0  0  0  0  0  0  0  0  0
   45.2300   29.5030   47.9670 C   0  0  0  0  0  0  0  0  0  0  0  0
   45.4550   30.3570   46.9740 N   0  0  0  0  0  0  0  0  0  0  0  0
   44.7680   36.6480   43.8200 C   0  0  0  0  0  0  0  0  0  0  0  0
   45.6580   36.3340   42.7830 C   0  0  0  0  0  0  0  0  0  0  0  0
   46.3080   35.0960   42.8180 C   0  0  0  0  0  0  0  0  0  0  0  0
   46.0470   34.2550   43.8560 N   0  0  0  0  0  0  0  0  0  0  0  0
   45.1820   34.5960   44.8350 C   0  0  0  0  0  0  0  0  0  0  0  0
   44.5380   35.8000   44.8180 N   0  0  0  0  0  0  0  0  0  0  0  0
   45.8710   32.6080   46.0440 C   0  0  0  0  0  0  0  0  0  0  0  0
   46.8810   32.4270   45.3080 O   0  0  0  0  0  0  0  0  0  0  0  0
   44.9420   33.6790   45.8940 N   0  0  0  0  0  0  0  0  0  0  0  0
   45.0750   28.0870   47.7140 C   0  0  0  0  0  0  0  0  0  0  0  0
   44.9200   27.2430   48.7110 C   0  0  0  0  0  0  0  0  0  0  0  0
   44.7580   25.7680   48.6090 C   0  0  0  0  0  0  0  0  0  0  0  0
   45.8220   25.1390   49.3470 N   0  0  0  0  0  0  0  0  0  0  0  0
   45.7260   23.7160   49.3810 C   0  0  0  0  0  0  0  0  0  0  0  0
   46.1890   23.2160   48.0190 C   0  0  0  0  0  0  0  0  0  0  0  0
   47.1450   24.3260   47.5990 C   0  0  0  0  0  0  0  0  0  0  0  0
   47.1130   25.3580   48.7080 C   0  0  0  0  0  0  0  0  0  0  0  0
   45.6710   33.2150   48.6346 H   0  0  0  0  0  0  0  0  0  0  0  0
   45.2558   31.7074   50.5578 H   0  0  0  0  0  0  0  0  0  0  0  0
   44.9673   29.2647   50.1060 H   0  0  0  0  0  0  0  0  0  0  0  0
   44.2485   37.6175   43.8076 H   0  0  0  0  0  0  0  0  0  0  0  0
   45.8405   37.0435   41.9625 H   0  0  0  0  0  0  0  0  0  0  0  0
   47.0139   34.8086   42.0249 H   0  0  0  0  0  0  0  0  0  0  0  0
   44.1340   33.7834   46.5242 H   0  0  0  0  0  0  0  0  0  0  0  0
   45.0869   27.7131   46.6796 H   0  0  0  0  0  0  0  0  0  0  0  0
   44.9091   27.6720   49.7238 H   0  0  0  0  0  0  0  0  0  0  0  0
   43.7871   25.4713   49.0324 H   0  0  0  0  0  0  0  0  0  0  0  0
   44.7958   25.4569   47.5546 H   0  0  0  0  0  0  0  0  0  0  0  0
   46.3721   23.3108   50.1738 H   0  0  0  0  0  0  0  0  0  0  0  0
   44.6962   23.3928   49.5931 H   0  0  0  0  0  0  0  0  0  0  0  0
   46.7066   22.2488   48.1003 H   0  0  0  0  0  0  0  0  0  0  0  0
   45.3716   23.0333   47.3059 H   0  0  0  0  0  0  0  0  0  0  0  0
   48.1630   23.9268   47.4796 H   0  0  0  0  0  0  0  0  0  0  0  0
   46.8480   24.7657   46.6354 H   0  0  0  0  0  0  0  0  0  0  0  0
   47.9356   25.1945   49.4197 H   0  0  0  0  0  0  0  0  0  0  0  0
   47.2358   26.3862   48.3369 H   0  0  0  0  0  0  0  0  0  0  0  0
  1  2  2  0
  2  3  1  0
  4  3  2  0
  5  4  1  0
  6  1  1  0
  6  5  2  0
  7 12  2  0
  8  9  2  0
  8  7  1  0
  9 10  1  0
 10 11  2  0
 11 15  1  0
 12 11  1  0
 13  1  1  0
 14 13  2  0
 15 13  1  0
 16  5  1  0
 16 17  2  0
 18 17  1  0
 18 19  1  0
 19 20  1  0
 21 20  1  0
 22 21  1  0
 22 23  1  0
 23 19  1  0
  2 24  1  0
  3 25  1  0
  4 26  1  0
  7 27  1  0
  8 28  1  0
  9 29  1  0
 15 30  1  0
 16 31  1  0
 17 32  1  0
 18 33  1  0
 18 34  1  0
 20 35  1  0
 20 36  1  0
 21 37  1  0
 21 38  1  0
 22 39  1  0
 22 40  1  0
 23 41  1  0
 23 42  1  0
M  ISO  8  24  14  25  14  26  14  27  14  28  14  29  14  33   8  34   8
M  ISO  8  35  13  36  13  37  13  38  13  39  13  40  13  41  13  42  13
M  END
>  <minimizedAffinity>  (1) 
-5.2966733

>  <minimizedRMSD>  (1) 
0.719390631

$$$$
