
     RDKit          3D

 42 45  0  0  0  0  0  0  0  0999 V2000
   47.9120   33.7030   42.8610 C   0  0  0  0  0  0  0  0  0  0  0  0
   48.6380   34.9050   42.6890 C   0  0  0  0  0  0  0  0  0  0  0  0
   50.0030   34.8450   42.3870 C   0  0  0  0  0  0  0  0  0  0  0  0
   50.5490   33.5870   42.2770 N   0  0  0  0  0  0  0  0  0  0  0  0
   49.7970   32.4420   42.4530 C   0  0  0  0  0  0  0  0  0  0  0  0
   48.5160   32.5270   42.7360 N   0  0  0  0  0  0  0  0  0  0  0  0
   46.4860   33.8910   43.1820 C   0  0  0  0  0  0  0  0  0  0  0  0
   45.8090   34.9180   42.4130 C   0  0  0  0  0  0  0  0  0  0  0  0
   45.3990   36.1070   43.1840 C   0  0  0  0  0  0  0  0  0  0  0  0
   44.5220   35.7050   44.3770 C   0  0  0  0  0  0  0  0  0  0  0  0
   44.9970   34.4970   45.0970 C   0  0  0  0  0  0  0  0  0  0  0  0
   46.4270   34.1480   44.7120 C   0  0  0  0  0  0  0  0  0  0  0  0
   50.5580   31.2160   42.2980 C   0  0  0  0  0  0  0  0  0  0  0  0
   50.5390   30.5880   41.1040 N   0  0  0  0  0  0  0  0  0  0  0  0
   51.3100   29.4790   41.1790 C   0  0  0  0  0  0  0  0  0  0  0  0
   51.8120   29.4310   42.4470 N   0  0  0  0  0  0  0  0  0  0  0  0
   51.3550   30.4890   43.1300 N   0  0  0  0  0  0  0  0  0  0  0  0
   52.7000   28.4120   42.9980 C   0  0  0  0  0  0  0  0  0  0  0  0
   53.9900   29.0100   43.2710 C   0  0  0  0  0  0  0  0  0  0  0  0
   54.6220   29.3730   44.4190 C   0  0  0  0  0  0  0  0  0  0  0  0
   55.8730   29.9320   44.3820 C   0  0  0  0  0  0  0  0  0  0  0  0
   56.4430   30.1000   43.1070 C   0  0  0  0  0  0  0  0  0  0  0  0
   55.0960   29.4160   41.9790 S   0  0  0  0  0  0  0  0  0  0  0  0
   48.1343   35.8775   42.7917 H   0  0  0  0  0  0  0  0  0  0  0  0
   50.6064   35.7538   42.2453 H   0  0  0  0  0  0  0  0  0  0  0  0
   45.9261   32.9888   42.8947 H   0  0  0  0  0  0  0  0  0  0  0  0
   46.4877   35.2479   41.6127 H   0  0  0  0  0  0  0  0  0  0  0  0
   44.8816   34.4600   42.0387 H   0  0  0  0  0  0  0  0  0  0  0  0
   46.2965   36.6244   43.5539 H   0  0  0  0  0  0  0  0  0  0  0  0
   44.8186   36.7713   42.5268 H   0  0  0  0  0  0  0  0  0  0  0  0
   44.4992   36.5443   45.0876 H   0  0  0  0  0  0  0  0  0  0  0  0
   43.5276   35.4638   43.9733 H   0  0  0  0  0  0  0  0  0  0  0  0
   44.9537   34.6856   46.1799 H   0  0  0  0  0  0  0  0  0  0  0  0
   44.3483   33.6524   44.8218 H   0  0  0  0  0  0  0  0  0  0  0  0
   46.7445   33.2433   45.2511 H   0  0  0  0  0  0  0  0  0  0  0  0
   47.0981   34.9782   44.9772 H   0  0  0  0  0  0  0  0  0  0  0  0
   51.4965   28.7547   40.3724 H   0  0  0  0  0  0  0  0  0  0  0  0
   52.2725   28.0152   43.9306 H   0  0  0  0  0  0  0  0  0  0  0  0
   52.8162   27.5900   42.2763 H   0  0  0  0  0  0  0  0  0  0  0  0
   54.1242   29.2164   45.3873 H   0  0  0  0  0  0  0  0  0  0  0  0
   56.4019   30.2326   45.2985 H   0  0  0  0  0  0  0  0  0  0  0  0
   57.4225   30.5219   42.8375 H   0  0  0  0  0  0  0  0  0  0  0  0
  1  7  1  0
  2  1  2  0
  3  2  1  0
  4  3  2  0
  4  5  1  0
  5  6  2  0
  6  1  1  0
  7 12  1  0
  8  7  1  0
  8  9  1  0
  9 10  1  0
 10 11  1  0
 12 11  1  0
 13  5  1  0
 13 17  2  0
 14 15  2  0
 14 13  1  0
 15 16  1  0
 16 18  1  0
 16 17  1  0
 18 19  1  0
 19 20  2  0
 21 20  1  0
 22 21  2  0
 23 22  1  0
 23 19  1  0
  2 24  1  0
  3 25  1  0
  7 26  1  0
  8 27  1  0
  8 28  1  0
  9 29  1  0
  9 30  1  0
 10 31  1  0
 10 32  1  0
 11 33  1  0
 11 34  1  0
 12 35  1  0
 12 36  1  0
 15 37  1  0
 18 38  1  0
 18 39  1  0
 20 40  1  0
 21 41  1  0
 22 42  1  0
M  ISO  8  24  14  25  14  26  13  27  13  28  13  29  13  30  13  31  13
M  ISO  8  32  13  33  13  34  13  35  13  36  13  37  14  38   8  39   8
M  ISO  3  40  14  41  14  42  14
M  END
>  <minimizedAffinity>  (1) 
-4.42386818

>  <minimizedRMSD>  (1) 
1.54538882

$$$$
