
     RDKit          3D

 47 50  0  0  0  0  0  0  0  0999 V2000
   47.8950   33.8260   42.8940 C   0  0  0  0  0  0  0  0  0  0  0  0
   48.5640   35.0450   42.6430 C   0  0  0  0  0  0  0  0  0  0  0  0
   49.9290   35.0390   42.3120 C   0  0  0  0  0  0  0  0  0  0  0  0
   50.5330   33.8060   42.2560 N   0  0  0  0  0  0  0  0  0  0  0  0
   49.8380   32.6490   42.5090 C   0  0  0  0  0  0  0  0  0  0  0  0
   48.5520   32.6740   42.8190 N   0  0  0  0  0  0  0  0  0  0  0  0
   46.4700   33.9650   43.2330 C   0  0  0  0  0  0  0  0  0  0  0  0
   45.7600   34.9780   42.4750 C   0  0  0  0  0  0  0  0  0  0  0  0
   45.3140   36.1480   43.2560 C   0  0  0  0  0  0  0  0  0  0  0  0
   44.4900   35.7480   44.4790 C   0  0  0  0  0  0  0  0  0  0  0  0
   44.9580   34.4870   45.1450 C   0  0  0  0  0  0  0  0  0  0  0  0
   46.4180   34.2150   44.7640 C   0  0  0  0  0  0  0  0  0  0  0  0
   50.6470   31.4370   42.4050 C   0  0  0  0  0  0  0  0  0  0  0  0
   51.5740   31.3730   41.4240 N   0  0  0  0  0  0  0  0  0  0  0  0
   52.2050   30.1690   41.5120 C   0  0  0  0  0  0  0  0  0  0  0  0
   51.6500   29.4970   42.5620 N   0  0  0  0  0  0  0  0  0  0  0  0
   50.7060   30.2690   43.1030 N   0  0  0  0  0  0  0  0  0  0  0  0
   52.0140   28.1680   43.0250 C   0  0  0  0  0  0  0  0  0  0  0  0
   52.7260   28.3150   44.2740 N   0  0  0  0  0  0  0  0  0  0  0  0
   53.7470   29.3170   44.2610 C   0  0  0  0  0  0  0  0  0  0  0  0
   53.5370   30.2520   45.4130 C   0  0  0  0  0  0  0  0  0  0  0  0
   52.6010   29.5120   46.3090 C   0  0  0  0  0  0  0  0  0  0  0  0
   51.8780   28.5350   45.4060 C   0  0  0  0  0  0  0  0  0  0  0  0
   48.0167   35.9971   42.7067 H   0  0  0  0  0  0  0  0  0  0  0  0
   50.4825   35.9677   42.1093 H   0  0  0  0  0  0  0  0  0  0  0  0
   45.9346   33.0460   42.9524 H   0  0  0  0  0  0  0  0  0  0  0  0
   46.4268   35.3356   41.6766 H   0  0  0  0  0  0  0  0  0  0  0  0
   44.8461   34.4945   42.0996 H   0  0  0  0  0  0  0  0  0  0  0  0
   46.1995   36.7068   43.5932 H   0  0  0  0  0  0  0  0  0  0  0  0
   44.6748   36.7633   42.6057 H   0  0  0  0  0  0  0  0  0  0  0  0
   44.5407   36.5660   45.2127 H   0  0  0  0  0  0  0  0  0  0  0  0
   43.4658   35.5594   44.1247 H   0  0  0  0  0  0  0  0  0  0  0  0
   44.8793   34.5986   46.2365 H   0  0  0  0  0  0  0  0  0  0  0  0
   44.3315   33.6454   44.8146 H   0  0  0  0  0  0  0  0  0  0  0  0
   46.7858   33.3281   45.3007 H   0  0  0  0  0  0  0  0  0  0  0  0
   47.0520   35.0720   45.0352 H   0  0  0  0  0  0  0  0  0  0  0  0
   53.0118   29.8060   40.8583 H   0  0  0  0  0  0  0  0  0  0  0  0
   51.1075   27.5644   43.1798 H   0  0  0  0  0  0  0  0  0  0  0  0
   52.6452   27.6611   42.2802 H   0  0  0  0  0  0  0  0  0  0  0  0
   54.7332   28.8381   44.3513 H   0  0  0  0  0  0  0  0  0  0  0  0
   53.7001   29.8790   43.3166 H   0  0  0  0  0  0  0  0  0  0  0  0
   54.4874   30.4606   45.9261 H   0  0  0  0  0  0  0  0  0  0  0  0
   53.1411   31.2293   45.0997 H   0  0  0  0  0  0  0  0  0  0  0  0
   53.1585   28.9751   47.0907 H   0  0  0  0  0  0  0  0  0  0  0  0
   51.9040   30.1886   46.8252 H   0  0  0  0  0  0  0  0  0  0  0  0
   50.9160   28.9589   45.0822 H   0  0  0  0  0  0  0  0  0  0  0  0
   51.6679   27.5919   45.9318 H   0  0  0  0  0  0  0  0  0  0  0  0
  1  7  1  0
  2  1  2  0
  3  2  1  0
  4  3  2  0
  4  5  1  0
  5  6  2  0
  6  1  1  0
  7 12  1  0
  8  7  1  0
  8  9  1  0
  9 10  1  0
 10 11  1  0
 12 11  1  0
 13  5  1  0
 13 17  2  0
 14 15  2  0
 14 13  1  0
 15 16  1  0
 16 18  1  0
 16 17  1  0
 18 19  1  0
 19 23  1  0
 20 19  1  0
 20 21  1  0
 21 22  1  0
 23 22  1  0
  2 24  1  0
  3 25  1  0
  7 26  1  0
  8 27  1  0
  8 28  1  0
  9 29  1  0
  9 30  1  0
 10 31  1  0
 10 32  1  0
 11 33  1  0
 11 34  1  0
 12 35  1  0
 12 36  1  0
 15 37  1  0
 18 38  1  0
 18 39  1  0
 20 40  1  0
 20 41  1  0
 21 42  1  0
 21 43  1  0
 22 44  1  0
 22 45  1  0
 23 46  1  0
 23 47  1  0
M  ISO  8  24  14  25  14  26  13  27  13  28  13  29  13  30  13  31  13
M  ISO  8  32  13  33  13  34  13  35  13  36  13  37  14  38   8  39   8
M  ISO  8  40  13  41  13  42  13  43  13  44  13  45  13  46  13  47  13
M  END
>  <minimizedAffinity>  (1) 
-4.32407236

>  <minimizedRMSD>  (1) 
0.453194737

$$$$
