
     RDKit          3D

 37 39  0  0  0  0  0  0  0  0999 V2000
   47.8820   33.7310   42.8660 C   0  0  0  0  0  0  0  0  0  0  0  0
   48.6060   34.9270   42.6890 C   0  0  0  0  0  0  0  0  0  0  0  0
   49.9680   34.8650   42.3730 C   0  0  0  0  0  0  0  0  0  0  0  0
   50.5150   33.6120   42.2570 N   0  0  0  0  0  0  0  0  0  0  0  0
   49.7610   32.4690   42.4410 C   0  0  0  0  0  0  0  0  0  0  0  0
   48.4800   32.5470   42.7380 N   0  0  0  0  0  0  0  0  0  0  0  0
   46.4580   33.9170   43.2010 C   0  0  0  0  0  0  0  0  0  0  0  0
   45.7780   34.9440   42.4330 C   0  0  0  0  0  0  0  0  0  0  0  0
   45.3710   36.1330   43.2070 C   0  0  0  0  0  0  0  0  0  0  0  0
   44.5050   35.7360   44.4100 C   0  0  0  0  0  0  0  0  0  0  0  0
   44.9800   34.5210   45.1240 C   0  0  0  0  0  0  0  0  0  0  0  0
   46.4120   34.1690   44.7320 C   0  0  0  0  0  0  0  0  0  0  0  0
   50.5230   31.2360   42.2810 C   0  0  0  0  0  0  0  0  0  0  0  0
   51.5520   31.2260   41.4060 N   0  0  0  0  0  0  0  0  0  0  0  0
   52.1220   29.9970   41.4120 C   0  0  0  0  0  0  0  0  0  0  0  0
   51.4230   29.2490   42.3070 N   0  0  0  0  0  0  0  0  0  0  0  0
   50.4440   29.9980   42.8430 N   0  0  0  0  0  0  0  0  0  0  0  0
   51.6480   27.8430   42.6810 C   0  0  0  0  0  0  0  0  0  0  0  0
   52.5640   27.7740   43.8030 N   0  0  0  0  0  0  0  0  0  0  0  0
   48.1053   35.9003   42.7982 H   0  0  0  0  0  0  0  0  0  0  0  0
   50.5692   35.7742   42.2252 H   0  0  0  0  0  0  0  0  0  0  0  0
   45.8917   33.0161   42.9224 H   0  0  0  0  0  0  0  0  0  0  0  0
   46.4539   35.2740   41.6303 H   0  0  0  0  0  0  0  0  0  0  0  0
   44.8497   34.4862   42.0606 H   0  0  0  0  0  0  0  0  0  0  0  0
   46.2709   36.6529   43.5675 H   0  0  0  0  0  0  0  0  0  0  0  0
   44.7812   36.7920   42.5529 H   0  0  0  0  0  0  0  0  0  0  0  0
   44.4972   36.5745   45.1220 H   0  0  0  0  0  0  0  0  0  0  0  0
   43.5040   35.5031   44.0179 H   0  0  0  0  0  0  0  0  0  0  0  0
   44.9405   34.7044   46.2079 H   0  0  0  0  0  0  0  0  0  0  0  0
   44.3283   33.6794   44.8465 H   0  0  0  0  0  0  0  0  0  0  0  0
   46.7304   33.2620   45.2667 H   0  0  0  0  0  0  0  0  0  0  0  0
   47.0884   34.9948   44.9977 H   0  0  0  0  0  0  0  0  0  0  0  0
   52.9823   29.6684   40.8104 H   0  0  0  0  0  0  0  0  0  0  0  0
   50.6898   27.3822   42.9629 H   0  0  0  0  0  0  0  0  0  0  0  0
   52.0806   27.3042   41.8251 H   0  0  0  0  0  0  0  0  0  0  0  0
   52.0316   27.8141   44.6838 H   0  0  0  0  0  0  0  0  0  0  0  0
   53.0923   26.8908   43.7611 H   0  0  0  0  0  0  0  0  0  0  0  0
  1  7  1  0
  2  1  2  0
  3  2  1  0
  4  3  2  0
  4  5  1  0
  5  6  2  0
  6  1  1  0
  7 12  1  0
  8  7  1  0
  8  9  1  0
  9 10  1  0
 10 11  1  0
 12 11  1  0
 13  5  1  0
 13 17  2  0
 14 15  2  0
 14 13  1  0
 15 16  1  0
 16 18  1  0
 16 17  1  0
 18 19  1  0
  2 20  1  0
  3 21  1  0
  7 22  1  0
  8 23  1  0
  8 24  1  0
  9 25  1  0
  9 26  1  0
 10 27  1  0
 10 28  1  0
 11 29  1  0
 11 30  1  0
 12 31  1  0
 12 32  1  0
 15 33  1  0
 18 34  1  0
 18 35  1  0
 19 36  1  0
 19 37  1  0
M  ISO  8  20  14  21  14  22  13  23  13  24  13  25  13  26  13  27  13
M  ISO  8  28  13  29  13  30  13  31  13  32  13  33  14  34   8  35   8
M  ISO  2  36   5  37   5
M  END
>  <minimizedAffinity>  (1) 
-4.09319782

>  <minimizedRMSD>  (1) 
0.0339180417

$$$$
