
     RDKit          3D

 31 32  0  0  0  0  0  0  0  0999 V2000
   45.6860   31.7020   47.1180 C   0  0  0  0  0  0  0  0  0  0  0  0
   45.5620   32.1530   48.4320 C   0  0  0  0  0  0  0  0  0  0  0  0
   45.3430   31.3170   49.5090 C   0  0  0  0  0  0  0  0  0  0  0  0
   45.2440   29.9750   49.2530 C   0  0  0  0  0  0  0  0  0  0  0  0
   45.3680   29.5140   47.9390 C   0  0  0  0  0  0  0  0  0  0  0  0
   45.5790   30.3740   46.9450 N   0  0  0  0  0  0  0  0  0  0  0  0
   44.7590   36.6710   43.8330 C   0  0  0  0  0  0  0  0  0  0  0  0
   45.6260   36.3870   42.7850 C   0  0  0  0  0  0  0  0  0  0  0  0
   46.2810   35.1480   42.8030 C   0  0  0  0  0  0  0  0  0  0  0  0
   46.0340   34.2870   43.8420 N   0  0  0  0  0  0  0  0  0  0  0  0
   45.1740   34.6250   44.8370 C   0  0  0  0  0  0  0  0  0  0  0  0
   44.5270   35.8220   44.8420 N   0  0  0  0  0  0  0  0  0  0  0  0
   45.9160   32.6530   46.0370 C   0  0  0  0  0  0  0  0  0  0  0  0
   46.9350   32.5010   45.3060 O   0  0  0  0  0  0  0  0  0  0  0  0
   44.9570   33.6960   45.8870 N   0  0  0  0  0  0  0  0  0  0  0  0
   45.2620   28.0910   47.6970 C   0  0  0  0  0  0  0  0  0  0  0  0
   44.5390   27.3270   48.4880 C   0  0  0  0  0  0  0  0  0  0  0  0
   44.3260   25.8600   48.3900 C   0  0  0  0  0  0  0  0  0  0  0  0
   43.0200   25.4510   47.2030 S   0  0  0  0  0  0  0  0  0  0  0  0
   45.6431   33.2337   48.6207 H   0  0  0  0  0  0  0  0  0  0  0  0
   45.2517   31.7128   50.5313 H   0  0  0  0  0  0  0  0  0  0  0  0
   45.0683   29.2655   50.0750 H   0  0  0  0  0  0  0  0  0  0  0  0
   44.2382   37.6399   43.8337 H   0  0  0  0  0  0  0  0  0  0  0  0
   45.7922   37.1081   41.9711 H   0  0  0  0  0  0  0  0  0  0  0  0
   46.9796   34.8714   41.9996 H   0  0  0  0  0  0  0  0  0  0  0  0
   44.1426   33.7721   46.5129 H   0  0  0  0  0  0  0  0  0  0  0  0
   45.7913   27.6433   46.8429 H   0  0  0  0  0  0  0  0  0  0  0  0
   44.0318   27.8354   49.3212 H   0  0  0  0  0  0  0  0  0  0  0  0
   45.2636   25.3844   48.0665 H   0  0  0  0  0  0  0  0  0  0  0  0
   44.0181   25.4911   49.3795 H   0  0  0  0  0  0  0  0  0  0  0  0
   41.8831   25.0950   47.8795 H   0  0  0  0  0  0  0  0  0  0  0  0
  1  2  2  0
  2  3  1  0
  4  3  2  0
  5  4  1  0
  6  1  1  0
  6  5  2  0
  7 12  2  0
  8  9  2  0
  8  7  1  0
  9 10  1  0
 10 11  2  0
 11 12  1  0
 11 15  1  0
 13  1  1  0
 14 13  2  0
 15 13  1  0
 16  5  1  0
 16 17  2  0
 18 17  1  0
 19 18  1  0
  2 20  1  0
  3 21  1  0
  4 22  1  0
  7 23  1  0
  8 24  1  0
  9 25  1  0
 15 26  1  0
 16 27  1  0
 17 28  1  0
 18 29  1  0
 18 30  1  0
 19 31  1  0
M  ISO  8  20  14  21  14  22  14  23  14  24  14  25  14  29   8  30   8
M  ISO  1  31  11
M  END
>  <minimizedAffinity>  (1) 
-5.14393044

>  <minimizedRMSD>  (1) 
0.259451628

$$$$
