
     RDKit          3D

 42 45  0  0  0  0  0  0  0  0999 V2000
   47.8910   33.7420   42.8660 C   0  0  0  0  0  0  0  0  0  0  0  0
   48.6050   34.9540   42.6900 C   0  0  0  0  0  0  0  0  0  0  0  0
   49.9700   34.9180   42.3760 C   0  0  0  0  0  0  0  0  0  0  0  0
   50.5300   33.6700   42.2590 N   0  0  0  0  0  0  0  0  0  0  0  0
   49.8020   32.5280   42.4370 C   0  0  0  0  0  0  0  0  0  0  0  0
   48.5130   32.5800   42.7330 N   0  0  0  0  0  0  0  0  0  0  0  0
   46.4620   33.9150   43.1970 C   0  0  0  0  0  0  0  0  0  0  0  0
   45.7840   34.9410   42.4300 C   0  0  0  0  0  0  0  0  0  0  0  0
   45.3530   36.1220   43.1990 C   0  0  0  0  0  0  0  0  0  0  0  0
   44.5230   35.7400   44.4290 C   0  0  0  0  0  0  0  0  0  0  0  0
   44.9820   34.5060   45.1200 C   0  0  0  0  0  0  0  0  0  0  0  0
   46.4130   34.1580   44.7290 C   0  0  0  0  0  0  0  0  0  0  0  0
   50.5630   31.2870   42.2770 C   0  0  0  0  0  0  0  0  0  0  0  0
   50.3350   30.5450   41.1740 N   0  0  0  0  0  0  0  0  0  0  0  0
   51.1180   29.4490   41.1940 C   0  0  0  0  0  0  0  0  0  0  0  0
   51.8440   29.5230   42.3420 N   0  0  0  0  0  0  0  0  0  0  0  0
   51.5140   30.6400   43.0090 N   0  0  0  0  0  0  0  0  0  0  0  0
   52.8500   28.5790   42.8520 C   0  0  0  0  0  0  0  0  0  0  0  0
   52.6040   28.2720   44.2780 C   0  0  0  0  0  0  0  0  0  0  0  0
   51.5810   27.4400   44.7400 C   0  0  0  0  0  0  0  0  0  0  0  0
   51.5860   27.3320   46.1140 C   0  0  0  0  0  0  0  0  0  0  0  0
   52.6260   28.1090   46.4680 N   0  0  0  0  0  0  0  0  0  0  0  0
   53.2310   28.6650   45.4140 N   0  0  0  0  0  0  0  0  0  0  0  0
   48.0892   35.9193   42.7996 H   0  0  0  0  0  0  0  0  0  0  0  0
   50.5586   35.8360   42.2317 H   0  0  0  0  0  0  0  0  0  0  0  0
   45.8976   33.0139   42.9150 H   0  0  0  0  0  0  0  0  0  0  0  0
   46.4684   35.2819   41.6392 H   0  0  0  0  0  0  0  0  0  0  0  0
   44.8639   34.4756   42.0469 H   0  0  0  0  0  0  0  0  0  0  0  0
   46.2450   36.6736   43.5308 H   0  0  0  0  0  0  0  0  0  0  0  0
   44.7213   36.7397   42.5437 H   0  0  0  0  0  0  0  0  0  0  0  0
   44.5673   36.5728   45.1463 H   0  0  0  0  0  0  0  0  0  0  0  0
   43.5032   35.5379   44.0695 H   0  0  0  0  0  0  0  0  0  0  0  0
   44.9353   34.6647   46.2075 H   0  0  0  0  0  0  0  0  0  0  0  0
   44.3265   33.6745   44.8220 H   0  0  0  0  0  0  0  0  0  0  0  0
   46.7312   33.2481   45.2590 H   0  0  0  0  0  0  0  0  0  0  0  0
   47.0882   34.9828   45.0006 H   0  0  0  0  0  0  0  0  0  0  0  0
   51.1615   28.6542   40.4348 H   0  0  0  0  0  0  0  0  0  0  0  0
   52.8000   27.6479   42.2684 H   0  0  0  0  0  0  0  0  0  0  0  0
   53.8455   29.0370   42.7556 H   0  0  0  0  0  0  0  0  0  0  0  0
   50.8579   26.9318   44.0852 H   0  0  0  0  0  0  0  0  0  0  0  0
   50.9086   26.7545   46.7602 H   0  0  0  0  0  0  0  0  0  0  0  0
   52.9228   28.2586   47.4429 H   0  0  0  0  0  0  0  0  0  0  0  0
  1  7  1  0
  2  1  2  0
  3  2  1  0
  4  3  2  0
  4  5  1  0
  5  6  2  0
  6  1  1  0
  7 12  1  0
  8  7  1  0
  8  9  1  0
  9 10  1  0
 10 11  1  0
 12 11  1  0
 13  5  1  0
 13 17  2  0
 14 15  2  0
 14 13  1  0
 15 16  1  0
 16 18  1  0
 16 17  1  0
 18 19  1  0
 19 20  1  0
 19 23  2  0
 20 21  2  0
 21 22  1  0
 23 22  1  0
  2 24  1  0
  3 25  1  0
  7 26  1  0
  8 27  1  0
  8 28  1  0
  9 29  1  0
  9 30  1  0
 10 31  1  0
 10 32  1  0
 11 33  1  0
 11 34  1  0
 12 35  1  0
 12 36  1  0
 15 37  1  0
 18 38  1  0
 18 39  1  0
 20 40  1  0
 21 41  1  0
 22 42  1  0
M  ISO  8  24  14  25  14  26  13  27  13  28  13  29  13  30  13  31  13
M  ISO  8  32  13  33  13  34  13  35  13  36  13  37  14  38   8  39   8
M  ISO  3  40  14  41  14  42   9
M  END
>  <minimizedAffinity>  (1) 
-4.07331276

>  <minimizedRMSD>  (1) 
2.62844539

$$$$
