
     RDKit          3D

 36 38  0  0  0  0  0  0  0  0999 V2000
   47.8680   33.6990   42.8790 C   0  0  0  0  0  0  0  0  0  0  0  0
   48.5960   34.9090   42.6990 C   0  0  0  0  0  0  0  0  0  0  0  0
   49.9640   34.8620   42.3760 C   0  0  0  0  0  0  0  0  0  0  0  0
   50.5120   33.6080   42.2540 N   0  0  0  0  0  0  0  0  0  0  0  0
   49.7650   32.4590   42.4390 C   0  0  0  0  0  0  0  0  0  0  0  0
   48.4910   32.5390   42.7400 N   0  0  0  0  0  0  0  0  0  0  0  0
   46.4520   33.8880   43.2180 C   0  0  0  0  0  0  0  0  0  0  0  0
   45.7740   34.9040   42.4350 C   0  0  0  0  0  0  0  0  0  0  0  0
   45.3540   36.1000   43.1880 C   0  0  0  0  0  0  0  0  0  0  0  0
   44.5290   35.7520   44.4210 C   0  0  0  0  0  0  0  0  0  0  0  0
   44.9810   34.5020   45.1260 C   0  0  0  0  0  0  0  0  0  0  0  0
   46.4140   34.1780   44.7420 C   0  0  0  0  0  0  0  0  0  0  0  0
   50.5290   31.2350   42.2740 C   0  0  0  0  0  0  0  0  0  0  0  0
   51.5560   31.2310   41.3980 N   0  0  0  0  0  0  0  0  0  0  0  0
   52.1280   29.9990   41.4030 C   0  0  0  0  0  0  0  0  0  0  0  0
   51.4370   29.2460   42.2960 N   0  0  0  0  0  0  0  0  0  0  0  0
   50.4610   29.9950   42.8300 N   0  0  0  0  0  0  0  0  0  0  0  0
   51.6800   27.8460   42.6540 C   0  0  0  0  0  0  0  0  0  0  0  0
   50.7370   26.7450   41.5910 S   0  0  0  0  0  0  0  0  0  0  0  0
   48.0895   35.8789   42.8123 H   0  0  0  0  0  0  0  0  0  0  0  0
   50.5598   35.7750   42.2297 H   0  0  0  0  0  0  0  0  0  0  0  0
   45.8859   32.9795   42.9646 H   0  0  0  0  0  0  0  0  0  0  0  0
   44.8765   34.4488   41.9909 H   0  0  0  0  0  0  0  0  0  0  0  0
   46.5040   35.2530   41.6898 H   0  0  0  0  0  0  0  0  0  0  0  0
   46.2519   36.6492   43.5076 H   0  0  0  0  0  0  0  0  0  0  0  0
   44.7230   36.7091   42.5240 H   0  0  0  0  0  0  0  0  0  0  0  0
   44.5940   36.5913   45.1290 H   0  0  0  0  0  0  0  0  0  0  0  0
   43.5010   35.5687   44.0752 H   0  0  0  0  0  0  0  0  0  0  0  0
   44.9212   34.6554   46.2136 H   0  0  0  0  0  0  0  0  0  0  0  0
   44.3303   33.6657   44.8307 H   0  0  0  0  0  0  0  0  0  0  0  0
   46.7580   33.2936   45.2983 H   0  0  0  0  0  0  0  0  0  0  0  0
   47.0738   35.0239   44.9851 H   0  0  0  0  0  0  0  0  0  0  0  0
   52.9875   29.6736   40.7985 H   0  0  0  0  0  0  0  0  0  0  0  0
   52.7518   27.6255   42.5420 H   0  0  0  0  0  0  0  0  0  0  0  0
   51.3644   27.6876   43.6958 H   0  0  0  0  0  0  0  0  0  0  0  0
   50.0006   25.8852   42.3626 H   0  0  0  0  0  0  0  0  0  0  0  0
  1  7  1  0
  2  1  2  0
  3  2  1  0
  4  3  2  0
  4  5  1  0
  5  6  2  0
  6  1  1  0
  7 12  1  0
  8  9  1  0
  8  7  1  0
  9 10  1  0
 10 11  1  0
 12 11  1  0
 13  5  1  0
 13 17  2  0
 14 15  2  0
 14 13  1  0
 15 16  1  0
 16 18  1  0
 16 17  1  0
 19 18  1  0
  2 20  1  0
  3 21  1  0
  7 22  1  0
  8 23  1  0
  8 24  1  0
  9 25  1  0
  9 26  1  0
 10 27  1  0
 10 28  1  0
 11 29  1  0
 11 30  1  0
 12 31  1  0
 12 32  1  0
 15 33  1  0
 18 34  1  0
 18 35  1  0
 19 36  1  0
M  ISO  8  20  14  21  14  22  13  23  13  24  13  25  13  26  13  27  13
M  ISO  8  28  13  29  13  30  13  31  13  32  13  33  14  34   8  35   8
M  ISO  1  36  11
M  END
>  <minimizedAffinity>  (1) 
-4.05451107

>  <minimizedRMSD>  (1) 
0.0157221071

$$$$
