
     RDKit          3D

 39 41  0  0  0  0  0  0  0  0999 V2000
   47.8790   33.7280   42.8740 C   0  0  0  0  0  0  0  0  0  0  0  0
   48.6060   34.9410   42.6960 C   0  0  0  0  0  0  0  0  0  0  0  0
   49.9720   34.9030   42.3770 C   0  0  0  0  0  0  0  0  0  0  0  0
   50.5280   33.6480   42.2560 N   0  0  0  0  0  0  0  0  0  0  0  0
   49.7840   32.4990   42.4380 C   0  0  0  0  0  0  0  0  0  0  0  0
   48.5040   32.5660   42.7360 N   0  0  0  0  0  0  0  0  0  0  0  0
   46.4540   33.9090   43.2090 C   0  0  0  0  0  0  0  0  0  0  0  0
   45.7850   34.9370   42.4360 C   0  0  0  0  0  0  0  0  0  0  0  0
   45.3580   36.1210   43.2020 C   0  0  0  0  0  0  0  0  0  0  0  0
   44.5090   35.7400   44.4150 C   0  0  0  0  0  0  0  0  0  0  0  0
   44.9800   34.5070   45.1270 C   0  0  0  0  0  0  0  0  0  0  0  0
   46.4200   34.1650   44.7400 C   0  0  0  0  0  0  0  0  0  0  0  0
   50.5500   31.2740   42.2730 C   0  0  0  0  0  0  0  0  0  0  0  0
   51.5760   31.2690   41.3860 N   0  0  0  0  0  0  0  0  0  0  0  0
   52.1400   30.0360   41.4020 C   0  0  0  0  0  0  0  0  0  0  0  0
   51.4610   29.2870   42.2970 N   0  0  0  0  0  0  0  0  0  0  0  0
   50.4860   30.0340   42.8350 N   0  0  0  0  0  0  0  0  0  0  0  0
   51.7120   27.8870   42.6530 C   0  0  0  0  0  0  0  0  0  0  0  0
   53.0530   26.4960   41.0420 C   0  0  0  0  0  0  0  0  0  0  0  0
   54.1000   26.6750   41.6860 O   0  0  0  0  0  0  0  0  0  0  0  0
   51.8320   27.0690   41.4660 N   0  0  0  0  0  0  0  0  0  0  0  0
   48.0953   35.9087   42.8089 H   0  0  0  0  0  0  0  0  0  0  0  0
   50.5630   35.8194   42.2323 H   0  0  0  0  0  0  0  0  0  0  0  0
   45.8775   33.0118   42.9394 H   0  0  0  0  0  0  0  0  0  0  0  0
   44.8918   34.4893   41.9758 H   0  0  0  0  0  0  0  0  0  0  0  0
   46.5232   35.2972   41.7043 H   0  0  0  0  0  0  0  0  0  0  0  0
   46.2512   36.6613   43.5488 H   0  0  0  0  0  0  0  0  0  0  0  0
   44.7447   36.7513   42.5413 H   0  0  0  0  0  0  0  0  0  0  0  0
   44.5270   36.5785   45.1268 H   0  0  0  0  0  0  0  0  0  0  0  0
   43.4977   35.5239   44.0400 H   0  0  0  0  0  0  0  0  0  0  0  0
   44.9304   34.6777   46.2125 H   0  0  0  0  0  0  0  0  0  0  0  0
   44.3312   33.6669   44.8382 H   0  0  0  0  0  0  0  0  0  0  0  0
   46.7473   33.2627   45.2773 H   0  0  0  0  0  0  0  0  0  0  0  0
   47.0951   34.9918   45.0056 H   0  0  0  0  0  0  0  0  0  0  0  0
   52.9961   29.7056   40.7954 H   0  0  0  0  0  0  0  0  0  0  0  0
   52.6460   27.8236   43.2307 H   0  0  0  0  0  0  0  0  0  0  0  0
   50.8660   27.5181   43.2515 H   0  0  0  0  0  0  0  0  0  0  0  0
   53.0761   25.8830   40.1289 H   0  0  0  0  0  0  0  0  0  0  0  0
   50.9873   26.8957   40.9026 H   0  0  0  0  0  0  0  0  0  0  0  0
  1  7  1  0
  2  1  2  0
  3  2  1  0
  4  3  2  0
  4  5  1  0
  5  6  2  0
  6  1  1  0
  7 12  1  0
  8  9  1  0
  8  7  1  0
  9 10  1  0
 10 11  1  0
 12 11  1  0
 13  5  1  0
 13 17  2  0
 14 15  2  0
 14 13  1  0
 15 16  1  0
 16 18  1  0
 16 17  1  0
 19 21  1  0
 19 20  2  0
 21 18  1  0
  2 22  1  0
  3 23  1  0
  7 24  1  0
  8 25  1  0
  8 26  1  0
  9 27  1  0
  9 28  1  0
 10 29  1  0
 10 30  1  0
 11 31  1  0
 11 32  1  0
 12 33  1  0
 12 34  1  0
 15 35  1  0
 18 36  1  0
 18 37  1  0
 19 38  1  0
 21 39  1  0
M  ISO  8  22  14  23  14  24  13  25  13  26  13  27  13  28  13  29  13
M  ISO  8  30  13  31  13  32  13  33  13  34  13  35  14  36   8  37   8
M  ISO  1  38   6
M  END
>  <minimizedAffinity>  (1) 
-3.91058445

>  <minimizedRMSD>  (1) 
0.776354849

$$$$
