
     RDKit          3D

 30 31  0  0  0  0  0  0  0  0999 V2000
   42.6110   34.3270   40.4690 C   0  0  0  0  0  0  0  0  0  0  0  0
   42.8250   34.3000   38.9970 C   0  0  0  0  0  0  0  0  0  0  0  0
   42.1670   35.4250   38.2760 C   0  0  0  0  0  0  0  0  0  0  0  0
   40.6790   35.4990   38.5760 C   0  0  0  0  0  0  0  0  0  0  0  0
   40.3500   35.3210   40.0340 C   0  0  0  0  0  0  0  0  0  0  0  0
   41.5830   35.3460   40.9010 C   0  0  0  0  0  0  0  0  0  0  0  0
   43.8590   34.6390   41.2150 C   0  0  0  0  0  0  0  0  0  0  0  0
   43.6960   35.2330   42.4770 C   0  0  0  0  0  0  0  0  0  0  0  0
   44.8180   35.5560   43.2350 C   0  0  0  0  0  0  0  0  0  0  0  0
   46.0450   35.2590   42.6670 N   0  0  0  0  0  0  0  0  0  0  0  0
   46.1700   34.6890   41.4510 C   0  0  0  0  0  0  0  0  0  0  0  0
   45.0900   34.3900   40.7480 N   0  0  0  0  0  0  0  0  0  0  0  0
   47.4980   34.4520   41.0190 N   0  0  0  0  0  0  0  0  0  0  0  0
   44.7200   36.1700   44.5480 C   0  0  0  0  0  0  0  0  0  0  0  0
   44.5520   35.4070   45.5350 O   0  0  0  0  0  0  0  0  0  0  0  0
   42.2568   33.3127   40.7053 H   0  0  0  0  0  0  0  0  0  0  0  0
   43.9066   34.3479   38.8023 H   0  0  0  0  0  0  0  0  0  0  0  0
   42.3723   33.3698   38.6232 H   0  0  0  0  0  0  0  0  0  0  0  0
   42.3047   35.2826   37.1940 H   0  0  0  0  0  0  0  0  0  0  0  0
   42.6296   36.3636   38.6152 H   0  0  0  0  0  0  0  0  0  0  0  0
   40.3074   36.4826   38.2529 H   0  0  0  0  0  0  0  0  0  0  0  0
   40.1983   34.6719   38.0329 H   0  0  0  0  0  0  0  0  0  0  0  0
   39.6791   36.1342   40.3480 H   0  0  0  0  0  0  0  0  0  0  0  0
   39.8705   34.3385   40.1554 H   0  0  0  0  0  0  0  0  0  0  0  0
   41.2891   35.1331   41.9394 H   0  0  0  0  0  0  0  0  0  0  0  0
   42.0387   36.3428   40.8076 H   0  0  0  0  0  0  0  0  0  0  0  0
   42.6878   35.4418   42.8642 H   0  0  0  0  0  0  0  0  0  0  0  0
   47.6713   34.0193   40.1005 H   0  0  0  0  0  0  0  0  0  0  0  0
   48.2904   34.7123   41.6234 H   0  0  0  0  0  0  0  0  0  0  0  0
   44.7900   37.2604   44.6749 H   0  0  0  0  0  0  0  0  0  0  0  0
  1  6  1  0
  1  7  1  0
  2  1  1  0
  3  4  1  0
  3  2  1  0
  4  5  1  0
  5  6  1  0
  7  8  2  0
  8  9  1  0
  9 14  1  0
 10  9  2  0
 11 10  1  0
 12  7  1  0
 12 11  2  0
 13 11  1  0
 14 15  2  0
  1 16  1  0
  2 17  1  0
  2 18  1  0
  3 19  1  0
  3 20  1  0
  4 21  1  0
  4 22  1  0
  5 23  1  0
  5 24  1  0
  6 25  1  0
  6 26  1  0
  8 27  1  0
 13 28  1  0
 13 29  1  0
 14 30  1  0
M  ISO  8  16  13  17  13  18  13  19  13  20  13  21  13  22  13  23  13
M  ISO  5  24  13  25  13  26  13  27  14  30   6
M  END
>  <minimizedAffinity>  (1) 
-5.00548172

>  <minimizedRMSD>  (1) 
5.53193378

$$$$
