
     RDKit          3D

 29 30  0  0  0  0  0  0  0  0999 V2000
   45.9400   33.8990   43.0480 C   0  0  0  0  0  0  0  0  0  0  0  0
   45.2480   35.0520   42.4150 C   0  0  0  0  0  0  0  0  0  0  0  0
   45.1490   36.2290   43.3320 C   0  0  0  0  0  0  0  0  0  0  0  0
   44.4750   35.8760   44.6460 C   0  0  0  0  0  0  0  0  0  0  0  0
   44.9950   34.6140   45.2550 C   0  0  0  0  0  0  0  0  0  0  0  0
   46.1860   34.0690   44.5230 C   0  0  0  0  0  0  0  0  0  0  0  0
   47.2620   33.6260   42.4220 C   0  0  0  0  0  0  0  0  0  0  0  0
   48.3430   34.3780   42.8940 C   0  0  0  0  0  0  0  0  0  0  0  0
   49.6170   34.1820   42.3670 C   0  0  0  0  0  0  0  0  0  0  0  0
   49.7310   33.2370   41.3910 N   0  0  0  0  0  0  0  0  0  0  0  0
   48.6620   32.5100   40.9400 C   0  0  0  0  0  0  0  0  0  0  0  0
   47.4320   32.7020   41.4520 N   0  0  0  0  0  0  0  0  0  0  0  0
   48.9390   31.5590   39.9180 N   0  0  0  0  0  0  0  0  0  0  0  0
   50.7190   34.8880   42.7880 O   0  0  0  0  0  0  0  0  0  0  0  0
   45.2441   33.0619   42.8896 H   0  0  0  0  0  0  0  0  0  0  0  0
   45.8077   35.3502   41.5162 H   0  0  0  0  0  0  0  0  0  0  0  0
   44.2251   34.7339   42.1649 H   0  0  0  0  0  0  0  0  0  0  0  0
   46.1627   36.6007   43.5423 H   0  0  0  0  0  0  0  0  0  0  0  0
   44.5375   36.9955   42.8335 H   0  0  0  0  0  0  0  0  0  0  0  0
   44.6397   36.7002   45.3557 H   0  0  0  0  0  0  0  0  0  0  0  0
   43.4070   35.7202   44.4336 H   0  0  0  0  0  0  0  0  0  0  0  0
   45.2845   34.8184   46.2963 H   0  0  0  0  0  0  0  0  0  0  0  0
   44.1949   33.8614   45.1971 H   0  0  0  0  0  0  0  0  0  0  0  0
   46.4427   33.0888   44.9512 H   0  0  0  0  0  0  0  0  0  0  0  0
   47.0050   34.7940   44.6395 H   0  0  0  0  0  0  0  0  0  0  0  0
   48.1861   35.1269   43.6843 H   0  0  0  0  0  0  0  0  0  0  0  0
   48.1790   30.9792   39.5344 H   0  0  0  0  0  0  0  0  0  0  0  0
   49.8994   31.4506   39.5620 H   0  0  0  0  0  0  0  0  0  0  0  0
   51.6045   34.7119   42.3818 H   0  0  0  0  0  0  0  0  0  0  0  0
  1  6  1  0
  2  1  1  0
  2  3  1  0
  3  4  1  0
  4  5  1  0
  6  5  1  0
  7  8  2  0
  7  1  1  0
  9 14  1  0
  9  8  1  0
 10  9  2  0
 11 10  1  0
 11 12  2  0
 12  7  1  0
 13 11  1  0
  1 15  1  0
  2 16  1  0
  2 17  1  0
  3 18  1  0
  3 19  1  0
  4 20  1  0
  4 21  1  0
  5 22  1  0
  5 23  1  0
  6 24  1  0
  6 25  1  0
  8 26  1  0
 13 27  1  0
 13 28  1  0
 14 29  1  0
M  ISO  8  15  13  16  13  17  13  18  13  19  13  20  13  21  13  22  13
M  ISO  5  23  13  24  13  25  13  26  14  29   3
M  END
>  <minimizedAffinity>  (1) 
-4.82487345

>  <minimizedRMSD>  (1) 
0.85007292

$$$$
