
     RDKit          3D

 29 30  0  0  0  0  0  0  0  0999 V2000
   45.3350   33.5710   43.5280 C   0  0  0  0  0  0  0  0  0  0  0  0
   44.8090   34.6870   42.6990 C   0  0  0  0  0  0  0  0  0  0  0  0
   45.0670   36.0310   43.2870 C   0  0  0  0  0  0  0  0  0  0  0  0
   44.5510   36.1590   44.7100 C   0  0  0  0  0  0  0  0  0  0  0  0
   44.7940   34.9410   45.5460 C   0  0  0  0  0  0  0  0  0  0  0  0
   45.7920   34.0050   44.9020 C   0  0  0  0  0  0  0  0  0  0  0  0
   46.4830   32.8790   42.8880 C   0  0  0  0  0  0  0  0  0  0  0  0
   47.7180   33.5520   42.9570 C   0  0  0  0  0  0  0  0  0  0  0  0
   48.8370   32.9540   42.3710 C   0  0  0  0  0  0  0  0  0  0  0  0
   48.6520   31.7380   41.7610 N   0  0  0  0  0  0  0  0  0  0  0  0
   47.4340   31.1140   41.7140 C   0  0  0  0  0  0  0  0  0  0  0  0
   46.3820   31.6930   42.2740 N   0  0  0  0  0  0  0  0  0  0  0  0
   47.4130   29.8650   41.0470 N   0  0  0  0  0  0  0  0  0  0  0  0
   50.4220   33.7380   42.4170 S   0  0  0  0  0  0  0  0  0  0  0  0
   44.4763   32.8900   43.6228 H   0  0  0  0  0  0  0  0  0  0  0  0
   43.7223   34.5573   42.5881 H   0  0  0  0  0  0  0  0  0  0  0  0
   45.3321   34.6489   41.7321 H   0  0  0  0  0  0  0  0  0  0  0  0
   46.1521   36.2115   43.2889 H   0  0  0  0  0  0  0  0  0  0  0  0
   44.5319   36.7700   42.6726 H   0  0  0  0  0  0  0  0  0  0  0  0
   45.0528   37.0140   45.1866 H   0  0  0  0  0  0  0  0  0  0  0  0
   43.4614   36.2961   44.6476 H   0  0  0  0  0  0  0  0  0  0  0  0
   45.1817   35.2543   46.5266 H   0  0  0  0  0  0  0  0  0  0  0  0
   43.8401   34.4031   45.6501 H   0  0  0  0  0  0  0  0  0  0  0  0
   45.9096   33.1150   45.5376 H   0  0  0  0  0  0  0  0  0  0  0  0
   46.7481   34.5385   44.7961 H   0  0  0  0  0  0  0  0  0  0  0  0
   47.8001   34.5264   43.4608 H   0  0  0  0  0  0  0  0  0  0  0  0
   46.5323   29.3363   40.9713 H   0  0  0  0  0  0  0  0  0  0  0  0
   48.2784   29.4852   40.6375 H   0  0  0  0  0  0  0  0  0  0  0  0
   50.8011   33.9255   43.7201 H   0  0  0  0  0  0  0  0  0  0  0  0
  1  6  1  0
  2  3  1  0
  2  1  1  0
  3  4  1  0
  4  5  1  0
  6  5  1  0
  7  8  2  0
  7  1  1  0
  9 14  1  0
  9  8  1  0
 10  9  2  0
 11 10  1  0
 11 12  2  0
 12  7  1  0
 13 11  1  0
  1 15  1  0
  2 16  1  0
  2 17  1  0
  3 18  1  0
  3 19  1  0
  4 20  1  0
  4 21  1  0
  5 22  1  0
  5 23  1  0
  6 24  1  0
  6 25  1  0
  8 26  1  0
 13 27  1  0
 13 28  1  0
 14 29  1  0
M  ISO  8  15  13  16  13  17  13  18  13  19  13  20  13  21  13  22  13
M  ISO  5  23  13  24  13  25  13  26  14  29  11
M  END
>  <minimizedAffinity>  (1) 
-3.7911973

>  <minimizedRMSD>  (1) 
1.77832425

$$$$
