
     RDKit          3D

 32 33  0  0  0  0  0  0  0  0999 V2000
   46.7580   32.6440   45.8980 C   0  0  0  0  0  0  0  0  0  0  0  0
   46.8890   31.2710   45.3470 C   0  0  0  0  0  0  0  0  0  0  0  0
   45.8400   30.3300   45.8620 C   0  0  0  0  0  0  0  0  0  0  0  0
   45.7980   30.2860   47.3760 C   0  0  0  0  0  0  0  0  0  0  0  0
   45.9400   31.6240   48.0280 C   0  0  0  0  0  0  0  0  0  0  0  0
   45.7690   32.7420   47.0360 C   0  0  0  0  0  0  0  0  0  0  0  0
   46.3160   33.6270   44.8750 C   0  0  0  0  0  0  0  0  0  0  0  0
   47.1740   33.8430   43.7920 C   0  0  0  0  0  0  0  0  0  0  0  0
   46.8170   34.7530   42.8040 C   0  0  0  0  0  0  0  0  0  0  0  0
   45.6190   35.3940   42.9590 N   0  0  0  0  0  0  0  0  0  0  0  0
   44.7980   35.1740   44.0160 C   0  0  0  0  0  0  0  0  0  0  0  0
   45.1500   34.3010   44.9560 N   0  0  0  0  0  0  0  0  0  0  0  0
   43.5740   35.9140   44.0570 N   0  0  0  0  0  0  0  0  0  0  0  0
   48.9640   34.5040   41.9130 C   0  0  0  0  0  0  0  0  0  0  0  0
   49.2240   33.9360   42.9790 O   0  0  0  0  0  0  0  0  0  0  0  0
   47.6430   35.0140   41.6810 N   0  0  0  0  0  0  0  0  0  0  0  0
   47.7714   32.8764   46.2572 H   0  0  0  0  0  0  0  0  0  0  0  0
   47.8786   30.8764   45.6207 H   0  0  0  0  0  0  0  0  0  0  0  0
   46.7618   31.3406   44.2566 H   0  0  0  0  0  0  0  0  0  0  0  0
   44.8579   30.6580   45.4906 H   0  0  0  0  0  0  0  0  0  0  0  0
   46.0893   29.3204   45.5035 H   0  0  0  0  0  0  0  0  0  0  0  0
   44.8347   29.8524   47.6827 H   0  0  0  0  0  0  0  0  0  0  0  0
   46.6576   29.6813   47.7005 H   0  0  0  0  0  0  0  0  0  0  0  0
   45.1752   31.7222   48.8125 H   0  0  0  0  0  0  0  0  0  0  0  0
   46.9511   31.6938   48.4556 H   0  0  0  0  0  0  0  0  0  0  0  0
   45.9164   33.7016   47.5532 H   0  0  0  0  0  0  0  0  0  0  0  0
   44.7560   32.6698   46.6134 H   0  0  0  0  0  0  0  0  0  0  0  0
   48.1258   33.2959   43.7225 H   0  0  0  0  0  0  0  0  0  0  0  0
   42.9179   35.7812   44.8398 H   0  0  0  0  0  0  0  0  0  0  0  0
   43.3490   36.5794   43.3037 H   0  0  0  0  0  0  0  0  0  0  0  0
   49.7426   34.6183   41.1444 H   0  0  0  0  0  0  0  0  0  0  0  0
   47.3392   35.4986   40.8244 H   0  0  0  0  0  0  0  0  0  0  0  0
  1  6  1  0
  2  3  1  0
  2  1  1  0
  3  4  1  0
  4  5  1  0
  6  5  1  0
  7 12  1  0
  7  1  1  0
  8  7  2  0
  9 10  2  0
  9  8  1  0
 10 11  1  0
 11 13  1  0
 11 12  2  0
 14 15  2  0
 16 14  1  0
 16  9  1  0
  1 17  1  0
  2 18  1  0
  2 19  1  0
  3 20  1  0
  3 21  1  0
  4 22  1  0
  4 23  1  0
  5 24  1  0
  5 25  1  0
  6 26  1  0
  6 27  1  0
  8 28  1  0
 13 29  1  0
 13 30  1  0
 14 31  1  0
 16 32  1  0
M  ISO  8  17  13  18  13  19  13  20  13  21  13  22  13  23  13  24  13
M  ISO  5  25  13  26  13  27  13  28  14  31   6
M  END
>  <minimizedAffinity>  (1) 
-5.42426348

>  <minimizedRMSD>  (1) 
4.73291016

$$$$
