
     RDKit          3D

 38 39  0  0  0  0  0  0  0  0999 V2000
   46.0450   33.3350   45.6010 C   0  0  0  0  0  0  0  0  0  0  0  0
   46.6380   32.9930   44.3960 C   0  0  0  0  0  0  0  0  0  0  0  0
   46.3440   33.7030   43.2470 C   0  0  0  0  0  0  0  0  0  0  0  0
   45.4430   34.7320   43.3860 N   0  0  0  0  0  0  0  0  0  0  0  0
   44.8650   35.0490   44.5780 C   0  0  0  0  0  0  0  0  0  0  0  0
   45.1630   34.3610   45.6700 N   0  0  0  0  0  0  0  0  0  0  0  0
   43.9190   36.1190   44.5860 N   0  0  0  0  0  0  0  0  0  0  0  0
   48.2390   32.7610   42.2590 C   0  0  0  0  0  0  0  0  0  0  0  0
   48.6240   32.5490   43.4320 O   0  0  0  0  0  0  0  0  0  0  0  0
   46.9600   33.4030   42.0110 N   0  0  0  0  0  0  0  0  0  0  0  0
   46.4720   32.5920   46.8260 C   0  0  0  0  0  0  0  0  0  0  0  0
   46.8350   31.1950   46.5070 C   0  0  0  0  0  0  0  0  0  0  0  0
   45.8310   30.2310   47.0700 C   0  0  0  0  0  0  0  0  0  0  0  0
   45.6250   30.3870   48.5600 C   0  0  0  0  0  0  0  0  0  0  0  0
   45.5790   31.8010   49.0120 C   0  0  0  0  0  0  0  0  0  0  0  0
   45.4140   32.7660   47.8630 C   0  0  0  0  0  0  0  0  0  0  0  0
   48.9800   32.4110   41.0550 O   0  0  0  0  0  0  0  0  0  0  0  0
   47.0910   32.7780   39.2370 O   0  0  0  0  0  0  0  0  0  0  0  0
   48.4970   33.1840   39.5790 P   0  0  0  0  0  0  0  0  0  0  0  0
   49.5910   32.7320   38.3710 O   0  0  0  0  0  0  0  0  0  0  0  0
   48.4860   34.8710   39.7860 O   0  0  0  0  0  0  0  0  0  0  0  0
   47.3462   32.1523   44.3537 H   0  0  0  0  0  0  0  0  0  0  0  0
   43.4579   36.3922   45.4656 H   0  0  0  0  0  0  0  0  0  0  0  0
   43.6979   36.6175   43.7122 H   0  0  0  0  0  0  0  0  0  0  0  0
   46.5648   33.6072   41.0820 H   0  0  0  0  0  0  0  0  0  0  0  0
   47.4012   33.0030   47.2476 H   0  0  0  0  0  0  0  0  0  0  0  0
   46.8740   31.0750   45.4143 H   0  0  0  0  0  0  0  0  0  0  0  0
   47.8155   30.9786   46.9562 H   0  0  0  0  0  0  0  0  0  0  0  0
   44.8677   30.3950   46.5649 H   0  0  0  0  0  0  0  0  0  0  0  0
   46.2204   29.2166   46.8985 H   0  0  0  0  0  0  0  0  0  0  0  0
   44.6744   29.9046   48.8314 H   0  0  0  0  0  0  0  0  0  0  0  0
   46.4893   29.9196   49.0545 H   0  0  0  0  0  0  0  0  0  0  0  0
   44.7310   31.9242   49.7017 H   0  0  0  0  0  0  0  0  0  0  0  0
   46.5355   32.0271   49.5059 H   0  0  0  0  0  0  0  0  0  0  0  0
   45.4653   33.7933   48.2528 H   0  0  0  0  0  0  0  0  0  0  0  0
   44.4411   32.5658   47.3904 H   0  0  0  0  0  0  0  0  0  0  0  0
   50.4206   32.3892   38.7886 H   0  0  0  0  0  0  0  0  0  0  0  0
   48.4846   35.0849   40.7526 H   0  0  0  0  0  0  0  0  0  0  0  0
  1  6  1  0
  1 11  1  0
  2  1  2  0
  3  4  2  0
  3  2  1  0
  4  5  1  0
  5  7  1  0
  5  6  2  0
  8  9  2  0
 10  8  1  0
 10  3  1  0
 11 16  1  0
 12 11  1  0
 12 13  1  0
 13 14  1  0
 14 15  1  0
 16 15  1  0
 17  8  1  0
 18 19  2  0
 19 21  1  0
 19 17  1  0
 20 19  1  0
  2 22  1  0
  7 23  1  0
  7 24  1  0
 10 25  1  0
 11 26  1  0
 12 27  1  0
 12 28  1  0
 13 29  1  0
 13 30  1  0
 14 31  1  0
 14 32  1  0
 15 33  1  0
 15 34  1  0
 16 35  1  0
 16 36  1  0
 20 37  1  0
 21 38  1  0
M  ISO  8  22  14  26  13  27  13  28  13  29  13  30  13  31  13  32  13
M  ISO  6  33  13  34  13  35  13  36  13  37   3  38   3
M  END
>  <minimizedAffinity>  (1) 
-5.93168974

>  <minimizedRMSD>  (1) 
1.56489992

$$$$
