
     RDKit          3D

 32 34  0  0  0  0  0  0  0  0999 V2000
   48.3110   35.0120   40.1460 O   0  0  0  0  0  0  0  0  0  0  0  0
   48.3800   33.7570   40.9900 P   0  0  1  0  0  0  0  0  0  0  0  0
   49.8110   32.9150   40.7290 O   0  0  0  0  0  0  0  0  0  0  0  0
   48.3360   34.2070   42.6530 O   0  0  0  0  0  0  0  0  0  0  0  0
   45.3990   34.0610   44.8120 C   0  0  0  0  0  0  0  0  0  0  0  0
   46.6360   33.7170   44.2260 C   0  0  0  0  0  0  0  0  0  0  0  0
   47.1250   34.5550   43.2200 C   0  0  0  0  0  0  0  0  0  0  0  0
   46.3960   35.6440   42.8620 N   0  0  0  0  0  0  0  0  0  0  0  0
   45.2220   35.9370   43.4460 C   0  0  0  0  0  0  0  0  0  0  0  0
   44.7140   35.1500   44.4240 N   0  0  0  0  0  0  0  0  0  0  0  0
   47.0190   32.8050   40.6920 O   0  0  0  0  0  0  0  0  0  0  0  0
   46.2860   32.7540   39.5350 C   0  0  0  0  0  0  0  0  0  0  0  0
   46.7220   32.2230   38.3390 C   0  0  0  0  0  0  0  0  0  0  0  0
   45.9720   32.1780   37.1800 C   0  0  0  0  0  0  0  0  0  0  0  0
   44.6770   32.7060   37.2040 C   0  0  0  0  0  0  0  0  0  0  0  0
   44.2410   33.2410   38.4130 C   0  0  0  0  0  0  0  0  0  0  0  0
   42.9500   33.7440   38.3610 C   0  0  0  0  0  0  0  0  0  0  0  0
   42.3780   34.3120   39.4950 C   0  0  0  0  0  0  0  0  0  0  0  0
   43.1540   34.3420   40.6400 C   0  0  0  0  0  0  0  0  0  0  0  0
   44.4420   33.8410   40.6940 C   0  0  0  0  0  0  0  0  0  0  0  0
   45.0040   33.2770   39.5580 C   0  0  0  0  0  0  0  0  0  0  0  0
   50.2169   32.6762   41.5998 H   0  0  0  0  0  0  0  0  0  0  0  0
   44.9854   33.4218   45.6060 H   0  0  0  0  0  0  0  0  0  0  0  0
   47.1931   32.8249   44.5482 H   0  0  0  0  0  0  0  0  0  0  0  0
   44.6651   36.8296   43.1249 H   0  0  0  0  0  0  0  0  0  0  0  0
   47.7392   31.8057   38.3058 H   0  0  0  0  0  0  0  0  0  0  0  0
   46.3834   31.7374   36.2599 H   0  0  0  0  0  0  0  0  0  0  0  0
   44.0345   32.6989   36.3112 H   0  0  0  0  0  0  0  0  0  0  0  0
   42.3778   33.6940   37.4229 H   0  0  0  0  0  0  0  0  0  0  0  0
   41.3559   34.7185   39.4818 H   0  0  0  0  0  0  0  0  0  0  0  0
   42.7261   34.7856   41.5511 H   0  0  0  0  0  0  0  0  0  0  0  0
   45.0165   33.8894   41.6308 H   0  0  0  0  0  0  0  0  0  0  0  0
  2  1  2  0
  2  4  1  0
  3  2  1  0
  4  7  1  0
  6  5  2  0
  7  6  1  0
  8  7  2  0
  8  9  1  0
  9 10  2  0
 10  5  1  0
 11  2  1  0
 12 21  1  0
 12 11  1  0
 13 12  2  0
 14 15  2  0
 14 13  1  0
 15 16  1  0
 16 21  2  0
 17 16  1  0
 17 18  2  0
 18 19  1  0
 19 20  2  0
 21 20  1  0
  3 22  1  0
  5 23  1  0
  6 24  1  0
  9 25  1  0
 13 26  1  0
 14 27  1  0
 15 28  1  0
 17 29  1  0
 18 30  1  0
 19 31  1  0
 20 32  1  0
M  ISO  8  22   3  23  14  24  14  25  14  26  14  27  14  28  14  29  14
M  ISO  3  30  14  31  14  32  14
M  END
>  <minimizedAffinity>  (1) 
-4.57010078

>  <minimizedRMSD>  (1) 
6.19701862

$$$$
