
     RDKit          3D

 33 35  0  0  0  0  0  0  0  0999 V2000
   48.0750   32.9430   40.9720 O   0  0  0  0  0  0  0  0  0  0  0  0
   47.0130   33.8790   41.5220 P   0  0  2  0  0  0  0  0  0  0  0  0
   46.1730   33.0620   42.7870 O   0  0  0  0  0  0  0  0  0  0  0  0
   44.4680   35.7570   44.6080 C   0  0  0  0  0  0  0  0  0  0  0  0
   45.0100   35.0080   43.5400 C   0  0  0  0  0  0  0  0  0  0  0  0
   45.6340   33.8100   43.8350 C   0  0  0  0  0  0  0  0  0  0  0  0
   45.7040   33.3980   45.1400 N   0  0  0  0  0  0  0  0  0  0  0  0
   45.1680   34.1510   46.1390 C   0  0  0  0  0  0  0  0  0  0  0  0
   44.5600   35.3110   45.8870 N   0  0  0  0  0  0  0  0  0  0  0  0
   45.9030   34.3560   40.3690 O   0  0  0  0  0  0  0  0  0  0  0  0
   44.9840   33.4890   39.7940 C   0  0  0  0  0  0  0  0  0  0  0  0
   45.2410   32.3310   39.1580 N   0  0  0  0  0  0  0  0  0  0  0  0
   44.1950   31.6110   38.6570 C   0  0  0  0  0  0  0  0  0  0  0  0
   42.9060   32.0040   38.7670 N   0  0  0  0  0  0  0  0  0  0  0  0
   42.6420   33.1760   39.4100 C   0  0  0  0  0  0  0  0  0  0  0  0
   41.3010   33.5240   39.4900 C   0  0  0  0  0  0  0  0  0  0  0  0
   41.0040   34.7070   40.1370 C   0  0  0  0  0  0  0  0  0  0  0  0
   41.9910   35.4960   40.6720 C   0  0  0  0  0  0  0  0  0  0  0  0
   43.3110   35.0990   40.5630 C   0  0  0  0  0  0  0  0  0  0  0  0
   43.6790   33.9280   39.9290 C   0  0  0  0  0  0  0  0  0  0  0  0
   47.7900   35.2010   42.2000 O   0  0  0  0  0  0  0  0  0  0  0  0
   48.9280   35.5710   41.5130 C   0  0  0  0  0  0  0  0  0  0  0  0
   49.3180   36.8820   41.7440 F   0  0  0  0  0  0  0  0  0  0  0  0
   49.9340   34.6570   41.7680 F   0  0  0  0  0  0  0  0  0  0  0  0
   48.6250   35.4860   40.1620 F   0  0  0  0  0  0  0  0  0  0  0  0
   43.9653   36.7132   44.4009 H   0  0  0  0  0  0  0  0  0  0  0  0
   44.9377   35.3677   42.5030 H   0  0  0  0  0  0  0  0  0  0  0  0
   45.2378   33.7949   47.1774 H   0  0  0  0  0  0  0  0  0  0  0  0
   44.4113   30.6652   38.1387 H   0  0  0  0  0  0  0  0  0  0  0  0
   40.5133   32.8885   39.0591 H   0  0  0  0  0  0  0  0  0  0  0  0
   39.9543   35.0236   40.2254 H   0  0  0  0  0  0  0  0  0  0  0  0
   41.7344   36.4357   41.1829 H   0  0  0  0  0  0  0  0  0  0  0  0
   44.0951   35.7375   40.9960 H   0  0  0  0  0  0  0  0  0  0  0  0
  2  1  2  0
  2 21  1  0
  2  3  1  0
  3  6  1  0
  4  9  2  0
  5  6  2  0
  5  4  1  0
  6  7  1  0
  7  8  2  0
  9  8  1  0
 10  2  1  0
 11 20  1  0
 11 10  1  0
 12 11  2  0
 13 14  2  0
 13 12  1  0
 14 15  1  0
 15 16  1  0
 15 20  2  0
 16 17  2  0
 17 18  1  0
 19 18  2  0
 20 19  1  0
 22 23  1  0
 22 24  1  0
 22 21  1  0
 25 22  1  0
  4 26  1  0
  5 27  1  0
  8 28  1  0
 13 29  1  0
 16 30  1  0
 17 31  1  0
 18 32  1  0
 19 33  1  0
M  ISO  8  26  14  27  14  28  14  29  14  30  14  31  14  32  14  33  14
M  END
>  <minimizedAffinity>  (1) 
-5.85767937

>  <minimizedRMSD>  (1) 
1.68337762

$$$$
