
     RDKit          3D

 35 36  0  0  0  0  0  0  0  0999 V2000
   48.4140   32.9530   41.3400 O   0  0  0  0  0  0  0  0  0  0  0  0
   47.2920   33.9880   41.2260 P   0  0  2  0  0  0  0  0  0  0  0  0
   45.9290   33.3860   42.0810 O   0  0  0  0  0  0  0  0  0  0  0  0
   44.4110   35.8430   44.3270 C   0  0  0  0  0  0  0  0  0  0  0  0
   44.8180   35.2170   43.1230 C   0  0  0  0  0  0  0  0  0  0  0  0
   45.5190   34.0200   43.2510 C   0  0  0  0  0  0  0  0  0  0  0  0
   45.7760   33.5150   44.4890 N   0  0  0  0  0  0  0  0  0  0  0  0
   45.3650   34.1530   45.6030 C   0  0  0  0  0  0  0  0  0  0  0  0
   44.6920   35.3000   45.5420 N   0  0  0  0  0  0  0  0  0  0  0  0
   46.8790   34.2820   39.6440 O   0  0  0  0  0  0  0  0  0  0  0  0
   47.4810   33.3850   38.7800 C   0  0  0  0  0  0  0  0  0  0  0  0
   46.5150   32.3790   38.2280 C   0  0  0  0  0  0  0  0  0  0  0  0
   46.2550   32.5720   36.7490 C   0  0  0  0  0  0  0  0  0  0  0  0
   47.5800   32.3980   36.0340 C   0  0  0  0  0  0  0  0  0  0  0  0
   48.6610   33.2720   36.6150 C   0  0  0  0  0  0  0  0  0  0  0  0
   48.0510   34.1860   37.6280 C   0  0  0  0  0  0  0  0  0  0  0  0
   47.8210   35.3770   42.0110 O   0  0  0  0  0  0  0  0  0  0  0  0
   49.0450   35.8100   41.5590 C   0  0  0  0  0  0  0  0  0  0  0  0
   49.3520   37.1010   41.9670 F   0  0  0  0  0  0  0  0  0  0  0  0
   50.0220   34.9080   41.8990 F   0  0  0  0  0  0  0  0  0  0  0  0
   48.9590   35.8540   40.1770 F   0  0  0  0  0  0  0  0  0  0  0  0
   43.8546   36.7906   44.2781 H   0  0  0  0  0  0  0  0  0  0  0  0
   44.5923   35.6533   42.1387 H   0  0  0  0  0  0  0  0  0  0  0  0
   45.5912   33.7152   46.5865 H   0  0  0  0  0  0  0  0  0  0  0  0
   48.2523   32.8290   39.3332 H   0  0  0  0  0  0  0  0  0  0  0  0
   46.9277   31.3715   38.3846 H   0  0  0  0  0  0  0  0  0  0  0  0
   45.5584   32.5119   38.7545 H   0  0  0  0  0  0  0  0  0  0  0  0
   45.5332   31.8225   36.3924 H   0  0  0  0  0  0  0  0  0  0  0  0
   45.8342   33.5694   36.5536 H   0  0  0  0  0  0  0  0  0  0  0  0
   47.4467   32.6577   34.9734 H   0  0  0  0  0  0  0  0  0  0  0  0
   47.8928   31.3503   36.1542 H   0  0  0  0  0  0  0  0  0  0  0  0
   49.4248   32.6439   37.0967 H   0  0  0  0  0  0  0  0  0  0  0  0
   49.1330   33.8625   35.8159 H   0  0  0  0  0  0  0  0  0  0  0  0
   48.8218   34.8722   38.0089 H   0  0  0  0  0  0  0  0  0  0  0  0
   47.2403   34.7579   37.1530 H   0  0  0  0  0  0  0  0  0  0  0  0
  2  1  2  0
  2 17  1  0
  2  3  1  0
  3  6  1  0
  4  9  2  0
  5  6  2  0
  5  4  1  0
  6  7  1  0
  7  8  2  0
  9  8  1  0
 10  2  1  0
 11 10  1  0
 12 11  1  0
 13 12  1  0
 14 15  1  0
 14 13  1  0
 15 16  1  0
 16 11  1  0
 18 20  1  0
 18 19  1  0
 18 17  1  0
 21 18  1  0
  4 22  1  0
  5 23  1  0
  8 24  1  0
 11 25  1  0
 12 26  1  0
 12 27  1  0
 13 28  1  0
 13 29  1  0
 14 30  1  0
 14 31  1  0
 15 32  1  0
 15 33  1  0
 16 34  1  0
 16 35  1  0
M  ISO  8  22  14  23  14  24  14  25  13  26  13  27  13  28  13  29  13
M  ISO  6  30  13  31  13  32  13  33  13  34  13  35  13
M  END
>  <minimizedAffinity>  (1) 
-5.35088921

>  <minimizedRMSD>  (1) 
1.62522948

$$$$
