
     RDKit          3D

 27 28  0  0  0  0  0  0  0  0999 V2000
   48.1620   32.8670   41.5740 O   0  0  0  0  0  0  0  0  0  0  0  0
   47.2160   34.0000   41.2150 P   0  0  0  0  0  0  0  0  0  0  0  0
   45.6660   33.6650   41.9080 O   0  0  0  0  0  0  0  0  0  0  0  0
   44.4150   35.8400   44.5730 C   0  0  0  0  0  0  0  0  0  0  0  0
   44.7070   35.3570   43.2720 C   0  0  0  0  0  0  0  0  0  0  0  0
   45.3760   34.1430   43.1810 C   0  0  0  0  0  0  0  0  0  0  0  0
   45.7200   33.4750   44.3140 N   0  0  0  0  0  0  0  0  0  0  0  0
   45.4150   33.9830   45.5410 C   0  0  0  0  0  0  0  0  0  0  0  0
   44.7750   35.1420   45.6740 N   0  0  0  0  0  0  0  0  0  0  0  0
   47.0230   34.1760   39.5680 O   0  0  0  0  0  0  0  0  0  0  0  0
   47.4740   33.1780   38.7080 C   0  0  0  0  0  0  0  0  0  0  0  0
   46.6790   32.1000   38.3820 C   0  0  0  0  0  0  0  0  0  0  0  0
   47.2280   31.1720   37.5230 C   0  0  0  0  0  0  0  0  0  0  0  0
   48.4680   31.2840   37.0120 N   0  0  0  0  0  0  0  0  0  0  0  0
   49.2420   32.3550   37.3430 C   0  0  0  0  0  0  0  0  0  0  0  0
   48.7070   33.2460   38.1730 N   0  0  0  0  0  0  0  0  0  0  0  0
   47.7950   35.4060   41.9410 O   0  0  0  0  0  0  0  0  0  0  0  0
   49.0240   35.7750   41.4520 C   0  0  0  0  0  0  0  0  0  0  0  0
   49.4150   37.0480   41.8630 F   0  0  0  0  0  0  0  0  0  0  0  0
   49.9620   34.8140   41.7660 F   0  0  0  0  0  0  0  0  0  0  0  0
   48.9190   35.8240   40.0710 F   0  0  0  0  0  0  0  0  0  0  0  0
   43.8870   36.7981   44.6885 H   0  0  0  0  0  0  0  0  0  0  0  0
   44.4160   35.9199   42.3729 H   0  0  0  0  0  0  0  0  0  0  0  0
   45.7044   33.4223   46.4420 H   0  0  0  0  0  0  0  0  0  0  0  0
   45.6619   31.9865   38.7853 H   0  0  0  0  0  0  0  0  0  0  0  0
   46.6231   30.2974   37.2415 H   0  0  0  0  0  0  0  0  0  0  0  0
   50.2596   32.4770   36.9434 H   0  0  0  0  0  0  0  0  0  0  0  0
  2  1  2  0
  2  3  1  0
  2 17  1  0
  3  6  1  0
  4  9  2  0
  5  4  1  0
  6  5  2  0
  6  7  1  0
  7  8  2  0
  8  9  1  0
 10  2  1  0
 11 10  1  0
 12 11  2  0
 13 12  1  0
 14 15  1  0
 14 13  2  0
 15 16  2  0
 16 11  1  0
 18 20  1  0
 18 19  1  0
 18 17  1  0
 21 18  1  0
  4 22  1  0
  5 23  1  0
  8 24  1  0
 12 25  1  0
 13 26  1  0
 15 27  1  0
M  ISO  6  22  14  23  14  24  14  25  14  26  14  27  14
M  END
>  <minimizedAffinity>  (1) 
-5.05244541

>  <minimizedRMSD>  (1) 
1.15759456

$$$$
