
     RDKit          3D

 26 27  0  0  0  0  0  0  0  0999 V2000
   48.0300   32.8620   41.7470 O   0  0  0  0  0  0  0  0  0  0  0  0
   47.1720   34.0480   41.2870 P   0  0  2  0  0  0  0  0  0  0  0  0
   45.5810   33.8240   41.9180 O   0  0  0  0  0  0  0  0  0  0  0  0
   44.3950   35.9210   44.6850 C   0  0  0  0  0  0  0  0  0  0  0  0
   44.6710   35.4900   43.3560 C   0  0  0  0  0  0  0  0  0  0  0  0
   45.3060   34.2580   43.2110 C   0  0  0  0  0  0  0  0  0  0  0  0
   45.6300   33.5330   44.3180 N   0  0  0  0  0  0  0  0  0  0  0  0
   45.3510   33.9780   45.5560 C   0  0  0  0  0  0  0  0  0  0  0  0
   44.7390   35.1610   45.7430 N   0  0  0  0  0  0  0  0  0  0  0  0
   47.0870   34.1370   39.6210 O   0  0  0  0  0  0  0  0  0  0  0  0
   46.4780   33.1070   38.9220 C   0  0  0  0  0  0  0  0  0  0  0  0
   47.0920   31.9750   38.3810 C   0  0  0  0  0  0  0  0  0  0  0  0
   46.1040   31.2010   37.7610 C   0  0  0  0  0  0  0  0  0  0  0  0
   44.9380   31.8860   37.9450 N   0  0  0  0  0  0  0  0  0  0  0  0
   45.1880   32.9930   38.6260 N   0  0  0  0  0  0  0  0  0  0  0  0
   47.8130   35.4370   41.9690 O   0  0  0  0  0  0  0  0  0  0  0  0
   49.0420   35.7720   41.4350 C   0  0  0  0  0  0  0  0  0  0  0  0
   49.4540   37.0510   41.7860 F   0  0  0  0  0  0  0  0  0  0  0  0
   49.9700   34.8090   41.7700 F   0  0  0  0  0  0  0  0  0  0  0  0
   48.9040   35.7630   40.0550 F   0  0  0  0  0  0  0  0  0  0  0  0
   43.8946   36.8866   44.8498 H   0  0  0  0  0  0  0  0  0  0  0  0
   44.3956   36.1014   42.4840 H   0  0  0  0  0  0  0  0  0  0  0  0
   45.6270   33.3662   46.4275 H   0  0  0  0  0  0  0  0  0  0  0  0
   48.1640   31.7340   38.4330 H   0  0  0  0  0  0  0  0  0  0  0  0
   46.2389   30.2435   37.2366 H   0  0  0  0  0  0  0  0  0  0  0  0
   44.0113   31.5889   37.6077 H   0  0  0  0  0  0  0  0  0  0  0  0
  2  1  2  0
  2  3  1  0
  2 16  1  0
  3  6  1  0
  4  9  2  0
  5  4  1  0
  6  5  2  0
  6  7  1  0
  7  8  2  0
  8  9  1  0
 10  2  1  0
 11 10  1  0
 12 11  1  0
 13 14  1  0
 13 12  2  0
 14 15  1  0
 15 11  2  0
 17 19  1  0
 17 18  1  0
 17 16  1  0
 20 17  1  0
  4 21  1  0
  5 22  1  0
  8 23  1  0
 12 24  1  0
 13 25  1  0
 14 26  1  0
M  ISO  6  21  14  22  14  23  14  24  14  25  14  26   9
M  END
>  <minimizedAffinity>  (1) 
-4.9180851

>  <minimizedRMSD>  (1) 
0.333294898

$$$$
