
     RDKit          3D

 41 45  0  0  1  0  0  0  0  0999 V2000
   48.0220   32.8860   40.8170 O   0  0  0  0  0  0  0  0  0  0  0  0
   48.6030   33.2620   43.3340 O   0  0  0  0  0  0  0  0  0  0  0  0
   47.6680   33.7170   42.2090 P   0  0  2  0  0  0  0  0  0  0  0  0
   46.0500   33.3890   42.6670 O   0  0  0  0  0  0  0  0  0  0  0  0
   44.4080   35.9110   44.7270 C   0  0  0  0  0  0  0  0  0  0  0  0
   44.9330   35.2430   43.5960 C   0  0  0  0  0  0  0  0  0  0  0  0
   45.5500   34.0060   43.7950 C   0  0  0  0  0  0  0  0  0  0  0  0
   45.6180   33.5070   45.0490 N   0  0  0  0  0  0  0  0  0  0  0  0
   45.1090   34.1630   46.1150 C   0  0  0  0  0  0  0  0  0  0  0  0
   44.5090   35.3510   45.9720 N   0  0  0  0  0  0  0  0  0  0  0  0
   47.8480   35.3550   42.0550 O   0  0  0  0  0  0  0  0  0  0  0  0
   49.0390   35.7160   41.4450 C   0  0  0  0  0  0  0  0  0  0  0  0
   49.4190   37.0200   41.7300 F   0  0  0  0  0  0  0  0  0  0  0  0
   50.0110   34.8130   41.7360 F   0  0  0  0  0  0  0  0  0  0  0  0
   48.7970   35.6830   40.0780 F   0  0  0  0  0  0  0  0  0  0  0  0
   47.2220   32.6660   39.7270 C   0  0  0  0  0  0  0  0  0  0  0  0
   46.5240   33.6760   39.2340 O   0  0  0  0  0  0  0  0  0  0  0  0
   43.8850   30.9240   36.0370 C   0  0  0  0  0  0  0  0  0  0  0  0
   44.9690   31.5880   35.7340 C   0  0  0  0  0  0  0  0  0  0  0  0
   45.8170   32.0880   36.7560 N   0  0  0  0  0  0  0  0  0  0  0  0
   47.1120   32.3580   37.2650 C   0  0  2  0  0  0  0  0  0  0  0  0
   48.1380   32.7430   36.6140 O   0  0  0  0  0  0  0  0  0  0  0  0
   46.5480   31.9860   38.6160 C   0  0  1  0  0  0  0  0  0  0  0  0
   45.3550   32.6560   37.9920 C   0  0  1  0  0  0  0  0  0  0  0  0
   43.7550   32.0600   38.5220 S   0  0  0  0  0  0  0  0  0  0  0  0
   43.5030   30.6640   37.4230 C   0  0  0  0  0  0  0  0  0  0  0  0
   43.0270   30.4230   34.9670 C   0  0  0  0  0  0  0  0  0  0  0  0
   45.3450   31.8400   34.3480 C   0  0  0  0  0  0  0  0  0  0  0  0
   46.0030   31.1070   33.6020 O   0  0  0  0  0  0  0  0  0  0  0  0
   45.0230   32.9670   33.6130 O   0  0  0  0  0  0  0  0  0  0  0  0
   43.9153   36.8869   44.6052 H   0  0  0  0  0  0  0  0  0  0  0  0
   44.8576   35.6841   42.5911 H   0  0  0  0  0  0  0  0  0  0  0  0
   45.1889   33.7138   47.1159 H   0  0  0  0  0  0  0  0  0  0  0  0
   46.3842   32.4122   40.3931 H   0  0  0  0  0  0  0  0  0  0  0  0
   48.8499   33.0102   37.2479 H   0  0  0  0  0  0  0  0  0  0  0  0
   42.4365   30.3954   37.4436 H   0  0  0  0  0  0  0  0  0  0  0  0
   44.1506   29.8520   37.7853 H   0  0  0  0  0  0  0  0  0  0  0  0
   42.1553   29.9140   35.4040 H   0  0  0  0  0  0  0  0  0  0  0  0
   42.6868   31.2644   34.3455 H   0  0  0  0  0  0  0  0  0  0  0  0
   43.5926   29.7132   34.3455 H   0  0  0  0  0  0  0  0  0  0  0  0
   45.3248   33.0483   32.6736 H   0  0  0  0  0  0  0  0  0  0  0  0
  1  3  1  0
  3  4  1  0
  3  2  2  0
  4  7  1  0
  5 10  2  0
  6  7  2  0
  6  5  1  0
  7  8  1  0
  8  9  2  0
 10  9  1  0
 11  3  1  0
 12 13  1  0
 12 14  1  0
 12 11  1  0
 15 12  1  0
 16  1  1  0
 17 16  1  0
 18 26  1  0
 19 18  2  0
 19 20  1  0
 20 21  1  0
 20 24  1  0
 21 22  1  6
 21 24  1  0
 21 23  1  0
 23 17  1  6
 23 16  1  0
 24 25  1  6
 24 23  1  0
 26 25  1  0
 27 18  1  0
 28 19  1  0
 29 28  2  0
 30 28  1  0
  5 31  1  0
  6 32  1  0
  9 33  1  0
 16 34  1  0
 22 35  1  0
 26 36  1  0
 26 37  1  0
 27 38  1  0
 27 39  1  0
 27 40  1  0
 30 41  1  0
M  ISO  8  31  14  32  14  33  14  34  13  35   3  36  13  37  13  38   8
M  ISO  3  39   8  40   8  41   3
M  END
>  <minimizedAffinity>  (1) 
-6.46710491

>  <minimizedRMSD>  (1) 
1.70471466

$$$$
