
     RDKit          3D

 29 30  0  0  1  0  0  0  0  0999 V2000
   45.8280   32.8680   48.1530 C   0  0  2  0  0  0  0  0  0  0  0  0
   46.5760   32.1710   47.0470 C   0  0  1  0  0  0  0  0  0  0  0  0
   45.9020   30.9070   46.9510 O   0  0  0  0  0  0  0  0  0  0  0  0
   46.0430   30.5290   48.3170 C   0  0  0  0  0  0  0  0  0  0  0  0
   45.3170   31.6840   48.9800 C   0  0  2  0  0  0  0  0  0  0  0  0
   45.5650   34.6200   44.5160 C   0  0  0  0  0  0  0  0  0  0  0  0
   46.3610   34.2830   43.4120 C   0  0  0  0  0  0  0  0  0  0  0  0
   47.2630   33.1910   43.5190 C   0  0  0  0  0  0  0  0  0  0  0  0
   47.3090   32.5200   44.7010 N   0  0  0  0  0  0  0  0  0  0  0  0
   46.5270   32.8670   45.7540 C   0  0  0  0  0  0  0  0  0  0  0  0
   45.6650   33.9050   45.6630 N   0  0  0  0  0  0  0  0  0  0  0  0
   44.6050   35.7550   44.4560 C   0  0  0  0  0  0  0  0  0  0  0  0
   44.9540   36.7730   43.4000 C   0  0  0  0  0  0  0  0  0  0  0  0
   44.7280   33.5930   47.6200 O   0  0  0  0  0  0  0  0  0  0  0  0
   43.9490   31.5010   48.7290 O   0  0  0  0  0  0  0  0  0  0  0  0
   46.4355   33.5893   48.7193 H   0  0  0  0  0  0  0  0  0  0  0  0
   47.6503   32.1107   47.2755 H   0  0  0  0  0  0  0  0  0  0  0  0
   45.5564   29.5651   48.5272 H   0  0  0  0  0  0  0  0  0  0  0  0
   47.0792   30.3760   48.6531 H   0  0  0  0  0  0  0  0  0  0  0  0
   45.4698   31.7956   50.0636 H   0  0  0  0  0  0  0  0  0  0  0  0
   46.2880   34.8563   42.4761 H   0  0  0  0  0  0  0  0  0  0  0  0
   47.9031   32.8978   42.6738 H   0  0  0  0  0  0  0  0  0  0  0  0
   43.6037   35.3548   44.2385 H   0  0  0  0  0  0  0  0  0  0  0  0
   44.6430   36.2670   45.4288 H   0  0  0  0  0  0  0  0  0  0  0  0
   45.2744   37.7077   43.8834 H   0  0  0  0  0  0  0  0  0  0  0  0
   45.7707   36.3857   42.7731 H   0  0  0  0  0  0  0  0  0  0  0  0
   44.0715   36.9683   42.7731 H   0  0  0  0  0  0  0  0  0  0  0  0
   44.1803   33.9540   48.3615 H   0  0  0  0  0  0  0  0  0  0  0  0
   43.4617   31.4358   49.5883 H   0  0  0  0  0  0  0  0  0  0  0  0
  1  5  1  0
  2  1  1  0
  3  2  1  0
  3  4  1  0
  4  5  1  0
  6 11  2  0
  7  8  2  0
  7  6  1  0
  8  9  1  0
  9 10  2  0
 10  2  1  0
 11 10  1  0
 12  6  1  0
 13 12  1  0
 14  1  1  0
 15  5  1  0
  1 16  1  1
  2 17  1  1
  4 18  1  0
  4 19  1  0
  5 20  1  1
  7 21  1  0
  8 22  1  0
 12 23  1  0
 12 24  1  0
 13 25  1  0
 13 26  1  0
 13 27  1  0
 14 28  1  0
 15 29  1  0
M  ISO  8  16  13  17  13  18  13  19  13  20  13  21  14  22  14  23   8
M  ISO  6  24   8  25   8  26   8  27   8  28   3  29   3
M  END
>  <minimizedAffinity>  (1) 
-4.89991856

>  <minimizedRMSD>  (1) 
1.53007638

$$$$
