
     RDKit          3D

 24 25  0  0  1  0  0  0  0  0999 V2000
   45.9660   33.0470   47.7800 C   0  0  2  0  0  0  0  0  0  0  0  0
   46.4510   32.5010   46.4650 C   0  0  1  0  0  0  0  0  0  0  0  0
   45.6690   31.3100   46.3000 O   0  0  0  0  0  0  0  0  0  0  0  0
   46.0010   30.6980   47.5410 C   0  0  0  0  0  0  0  0  0  0  0  0
   45.4920   31.7760   48.4950 C   0  0  2  0  0  0  0  0  0  0  0  0
   44.8750   35.0520   44.3630 C   0  0  0  0  0  0  0  0  0  0  0  0
   45.7750   35.1770   43.2820 C   0  0  0  0  0  0  0  0  0  0  0  0
   46.9390   34.3640   43.2680 C   0  0  0  0  0  0  0  0  0  0  0  0
   47.1340   33.5020   44.3010 N   0  0  0  0  0  0  0  0  0  0  0  0
   46.2450   33.4070   45.3280 C   0  0  0  0  0  0  0  0  0  0  0  0
   45.1330   34.1670   45.3630 N   0  0  0  0  0  0  0  0  0  0  0  0
   43.7210   35.8210   44.4270 O   0  0  0  0  0  0  0  0  0  0  0  0
   44.8600   33.9130   47.5780 O   0  0  0  0  0  0  0  0  0  0  0  0
   44.1070   31.7140   48.4810 O   0  0  0  0  0  0  0  0  0  0  0  0
   46.7264   33.6244   48.3263 H   0  0  0  0  0  0  0  0  0  0  0  0
   47.5390   32.3395   46.4814 H   0  0  0  0  0  0  0  0  0  0  0  0
   45.4740   29.7428   47.6819 H   0  0  0  0  0  0  0  0  0  0  0  0
   47.0602   30.4268   47.6618 H   0  0  0  0  0  0  0  0  0  0  0  0
   45.8300   31.7019   49.5392 H   0  0  0  0  0  0  0  0  0  0  0  0
   45.5783   35.8896   42.4675 H   0  0  0  0  0  0  0  0  0  0  0  0
   47.6638   34.4299   42.4432 H   0  0  0  0  0  0  0  0  0  0  0  0
   43.5181   36.4700   43.7074 H   0  0  0  0  0  0  0  0  0  0  0  0
   44.4982   34.1963   48.4549 H   0  0  0  0  0  0  0  0  0  0  0  0
   43.7679   31.6988   49.4110 H   0  0  0  0  0  0  0  0  0  0  0  0
  1  5  1  0
  2  1  1  0
  3  2  1  0
  3  4  1  0
  4  5  1  0
  6 12  1  0
  6 11  2  0
  7  6  1  0
  8  7  2  0
  8  9  1  0
  9 10  2  0
 10 11  1  0
 10  2  1  0
 13  1  1  0
 14  5  1  0
  1 15  1  1
  2 16  1  1
  4 17  1  0
  4 18  1  0
  5 19  1  1
  7 20  1  0
  8 21  1  0
 12 22  1  0
 13 23  1  0
 14 24  1  0
M  ISO  8  15  13  16  13  17  13  18  13  19  13  20  14  21  14  22   3
M  ISO  2  23   3  24   3
M  END
>  <minimizedAffinity>  (1) 
-5.41449785

>  <minimizedRMSD>  (1) 
0.777284265

$$$$
