
     RDKit          3D

 40 42  0  0  1  0  0  0  0  0999 V2000
   46.6880   32.7500   46.6280 C   0  0  2  0  0  0  0  0  0  0  0  0
   47.0770   32.7030   45.1950 C   0  0  1  0  0  0  0  0  0  0  0  0
   46.5880   31.3850   44.7530 O   0  0  0  0  0  0  0  0  0  0  0  0
   47.2520   30.6510   45.7670 C   0  0  0  0  0  0  0  0  0  0  0  0
   46.5980   31.2860   47.0100 C   0  0  2  0  0  0  0  0  0  0  0  0
   44.7480   35.2370   44.0210 C   0  0  0  0  0  0  0  0  0  0  0  0
   45.3580   35.7630   42.8930 C   0  0  0  0  0  0  0  0  0  0  0  0
   46.6130   35.2320   42.5090 C   0  0  0  0  0  0  0  0  0  0  0  0
   47.1590   34.2460   43.2480 N   0  0  0  0  0  0  0  0  0  0  0  0
   46.5330   33.7520   44.3480 C   0  0  0  0  0  0  0  0  0  0  0  0
   45.3320   34.2420   44.7400 N   0  0  0  0  0  0  0  0  0  0  0  0
   43.5060   35.7250   44.4540 O   0  0  0  0  0  0  0  0  0  0  0  0
   45.3650   33.3120   46.7310 O   0  0  0  0  0  0  0  0  0  0  0  0
   45.3070   30.8550   47.0670 O   0  0  0  0  0  0  0  0  0  0  0  0
   45.0540   29.8530   47.9760 C   0  0  0  0  0  0  0  0  0  0  0  0
   45.5300   28.5120   47.6670 C   0  0  0  0  0  0  0  0  0  0  0  0
   44.5890   25.9860   49.5150 Cl  0  0  0  0  0  0  0  0  0  0  0  0
   43.8940   26.4080   47.9760 C   0  0  0  0  0  0  0  0  0  0  0  0
   44.4370   27.5420   47.4420 C   0  0  0  0  0  0  0  0  0  0  0  0
   43.7620   27.8130   46.2260 C   0  0  0  0  0  0  0  0  0  0  0  0
   42.7220   27.0710   45.6440 C   0  0  0  0  0  0  0  0  0  0  0  0
   42.2950   25.9510   46.3150 C   0  0  0  0  0  0  0  0  0  0  0  0
   42.8980   25.6210   47.5070 C   0  0  0  0  0  0  0  0  0  0  0  0
   47.3805   33.3379   47.2484 H   0  0  0  0  0  0  0  0  0  0  0  0
   48.1617   32.8613   45.1030 H   0  0  0  0  0  0  0  0  0  0  0  0
   47.0419   29.5734   45.6980 H   0  0  0  0  0  0  0  0  0  0  0  0
   48.3505   30.7013   45.7385 H   0  0  0  0  0  0  0  0  0  0  0  0
   47.0448   31.0573   47.9888 H   0  0  0  0  0  0  0  0  0  0  0  0
   44.8818   36.5680   42.3141 H   0  0  0  0  0  0  0  0  0  0  0  0
   47.1346   35.6183   41.6209 H   0  0  0  0  0  0  0  0  0  0  0  0
   43.0561   36.4493   43.9510 H   0  0  0  0  0  0  0  0  0  0  0  0
   45.1234   33.4146   47.6856 H   0  0  0  0  0  0  0  0  0  0  0  0
   45.5151   30.1520   48.9289 H   0  0  0  0  0  0  0  0  0  0  0  0
   43.9580   29.7600   47.9836 H   0  0  0  0  0  0  0  0  0  0  0  0
   46.1463   28.5611   46.7572 H   0  0  0  0  0  0  0  0  0  0  0  0
   46.1039   28.1609   48.5373 H   0  0  0  0  0  0  0  0  0  0  0  0
   44.0903   28.7067   45.6752 H   0  0  0  0  0  0  0  0  0  0  0  0
   42.2674   27.3742   44.6893 H   0  0  0  0  0  0  0  0  0  0  0  0
   41.4851   25.3288   45.9065 H   0  0  0  0  0  0  0  0  0  0  0  0
   42.5758   24.7322   48.0694 H   0  0  0  0  0  0  0  0  0  0  0  0
  1 13  1  0
  1  5  1  0
  2  1  1  0
  3  2  1  0
  3  4  1  0
  4  5  1  0
  5 14  1  0
  6 12  1  0
  6 11  2  0
  7  6  1  0
  8  7  2  0
  8  9  1  0
  9 10  2  0
 10 11  1  0
 10  2  1  0
 14 15  1  0
 16 15  1  0
 18 17  1  0
 19 16  1  0
 19 18  2  0
 20 19  1  0
 21 20  2  0
 21 22  1  0
 22 23  2  0
 23 18  1  0
  1 24  1  1
  2 25  1  1
  4 26  1  0
  4 27  1  0
  5 28  1  1
  7 29  1  0
  8 30  1  0
 12 31  1  0
 13 32  1  0
 15 33  1  0
 15 34  1  0
 16 35  1  0
 16 36  1  0
 20 37  1  0
 21 38  1  0
 22 39  1  0
 23 40  1  0
M  ISO  8  24  13  25  13  26  13  27  13  28  13  29  14  30  14  31   3
M  ISO  8  32   3  33   8  34   8  35   8  36   8  37  14  38  14  39  14
M  ISO  1  40  14
M  END
>  <minimizedAffinity>  (1) 
-5.94926167

>  <minimizedRMSD>  (1) 
1.18849671

$$$$
