
     RDKit          3D

 43 46  0  0  1  0  0  0  0  0999 V2000
   46.6210   32.6530   46.6110 C   0  0  2  0  0  0  0  0  0  0  0  0
   47.1400   32.6910   45.2280 C   0  0  1  0  0  0  0  0  0  0  0  0
   46.8120   31.3560   44.7080 O   0  0  0  0  0  0  0  0  0  0  0  0
   47.4610   30.6420   45.7400 C   0  0  0  0  0  0  0  0  0  0  0  0
   46.6630   31.1650   46.9400 C   0  0  2  0  0  0  0  0  0  0  0  0
   44.7680   35.2160   44.0780 C   0  0  0  0  0  0  0  0  0  0  0  0
   45.3240   35.6840   42.8860 C   0  0  0  0  0  0  0  0  0  0  0  0
   46.5470   35.1170   42.4520 C   0  0  0  0  0  0  0  0  0  0  0  0
   47.1320   34.1390   43.2170 N   0  0  0  0  0  0  0  0  0  0  0  0
   46.5590   33.7160   44.3650 C   0  0  0  0  0  0  0  0  0  0  0  0
   45.3820   34.2440   44.8030 N   0  0  0  0  0  0  0  0  0  0  0  0
   43.5610   35.7370   44.5570 O   0  0  0  0  0  0  0  0  0  0  0  0
   45.2440   33.0630   46.6160 O   0  0  0  0  0  0  0  0  0  0  0  0
   45.4250   30.6120   46.9210 O   0  0  0  0  0  0  0  0  0  0  0  0
   45.1740   29.6060   47.8110 C   0  0  0  0  0  0  0  0  0  0  0  0
   45.4540   28.2080   47.2900 C   0  0  0  0  0  0  0  0  0  0  0  0
   44.2420   27.5090   46.9530 N   0  0  0  0  0  0  0  0  0  0  0  0
   43.9790   26.3510   47.6530 C   0  0  0  0  0  0  0  0  0  0  0  0
   42.8180   25.7610   47.2870 N   0  0  0  0  0  0  0  0  0  0  0  0
   42.2770   26.5120   46.3330 C   0  0  0  0  0  0  0  0  0  0  0  0
   41.1560   26.5240   45.5300 C   0  0  0  0  0  0  0  0  0  0  0  0
   40.9550   27.5230   44.6220 N   0  0  0  0  0  0  0  0  0  0  0  0
   41.8560   28.5150   44.4970 C   0  0  0  0  0  0  0  0  0  0  0  0
   42.9500   28.5150   45.2710 N   0  0  0  0  0  0  0  0  0  0  0  0
   43.1620   27.5520   46.1600 C   0  0  0  0  0  0  0  0  0  0  0  0
   40.2480   25.4290   45.7280 N   0  0  0  0  0  0  0  0  0  0  0  0
   47.1820   33.2966   47.3046 H   0  0  0  0  0  0  0  0  0  0  0  0
   48.2099   32.9465   45.2377 H   0  0  0  0  0  0  0  0  0  0  0  0
   47.3545   29.5540   45.6176 H   0  0  0  0  0  0  0  0  0  0  0  0
   48.5499   30.7862   45.7996 H   0  0  0  0  0  0  0  0  0  0  0  0
   47.0757   30.9419   47.9349 H   0  0  0  0  0  0  0  0  0  0  0  0
   44.8262   36.4709   42.3004 H   0  0  0  0  0  0  0  0  0  0  0  0
   47.0199   35.4545   41.5180 H   0  0  0  0  0  0  0  0  0  0  0  0
   43.0918   36.4458   44.0496 H   0  0  0  0  0  0  0  0  0  0  0  0
   44.9308   33.1562   47.5505 H   0  0  0  0  0  0  0  0  0  0  0  0
   45.8008   29.7715   48.6997 H   0  0  0  0  0  0  0  0  0  0  0  0
   44.0958   29.6454   48.0256 H   0  0  0  0  0  0  0  0  0  0  0  0
   46.0833   28.2828   46.3909 H   0  0  0  0  0  0  0  0  0  0  0  0
   45.9639   27.6435   48.0846 H   0  0  0  0  0  0  0  0  0  0  0  0
   44.6452   25.9478   48.4299 H   0  0  0  0  0  0  0  0  0  0  0  0
   41.6955   29.3200   43.7647 H   0  0  0  0  0  0  0  0  0  0  0  0
   39.3868   25.3661   45.1665 H   0  0  0  0  0  0  0  0  0  0  0  0
   40.4580   24.7066   46.4315 H   0  0  0  0  0  0  0  0  0  0  0  0
  1 13  1  0
  1  5  1  0
  2  1  1  0
  3  2  1  0
  3  4  1  0
  4  5  1  0
  6 12  1  0
  6 11  2  0
  7  6  1  0
  8  7  2  0
  8  9  1  0
  9 10  2  0
 10 11  1  0
 10  2  1  0
 14  5  1  0
 14 15  1  0
 16 15  1  0
 17 16  1  0
 17 18  1  0
 19 18  2  0
 20 19  1  0
 21 26  1  0
 21 20  2  0
 22 21  1  0
 23 22  2  0
 23 24  1  0
 24 25  2  0
 25 20  1  0
 25 17  1  0
  1 27  1  1
  2 28  1  1
  4 29  1  0
  4 30  1  0
  5 31  1  1
  7 32  1  0
  8 33  1  0
 12 34  1  0
 13 35  1  0
 15 36  1  0
 15 37  1  0
 16 38  1  0
 16 39  1  0
 18 40  1  0
 23 41  1  0
 26 42  1  0
 26 43  1  0
M  ISO  8  27  13  28  13  29  13  30  13  31  13  32  14  33  14  34   3
M  ISO  7  35   3  36   8  37   8  38   8  39   8  40  14  41  14
M  END
>  <minimizedAffinity>  (1) 
-5.94567776

>  <minimizedRMSD>  (1) 
1.38417411

$$$$
