
     RDKit          3D

 40 42  0  0  1  0  0  0  0  0999 V2000
   46.6220   32.6300   46.6240 C   0  0  2  0  0  0  0  0  0  0  0  0
   47.1380   32.6700   45.2410 C   0  0  1  0  0  0  0  0  0  0  0  0
   46.8240   31.3360   44.7100 O   0  0  0  0  0  0  0  0  0  0  0  0
   47.4770   30.6280   45.7560 C   0  0  0  0  0  0  0  0  0  0  0  0
   46.6530   31.1480   46.9660 C   0  0  2  0  0  0  0  0  0  0  0  0
   44.8020   35.2220   44.1150 C   0  0  0  0  0  0  0  0  0  0  0  0
   45.3620   35.6770   42.9110 C   0  0  0  0  0  0  0  0  0  0  0  0
   46.5610   35.1010   42.4600 C   0  0  0  0  0  0  0  0  0  0  0  0
   47.1290   34.1170   43.2180 N   0  0  0  0  0  0  0  0  0  0  0  0
   46.5670   33.7000   44.3740 C   0  0  0  0  0  0  0  0  0  0  0  0
   45.4080   34.2420   44.8290 N   0  0  0  0  0  0  0  0  0  0  0  0
   43.6170   35.7720   44.5960 O   0  0  0  0  0  0  0  0  0  0  0  0
   45.2440   33.0460   46.6310 O   0  0  0  0  0  0  0  0  0  0  0  0
   45.4000   30.5680   46.8620 O   0  0  0  0  0  0  0  0  0  0  0  0
   45.1080   29.6660   47.8610 C   0  0  0  0  0  0  0  0  0  0  0  0
   45.5630   28.2790   47.6300 C   0  0  0  0  0  0  0  0  0  0  0  0
   44.4860   27.3190   47.5120 N   0  0  0  0  0  0  0  0  0  0  0  0
   43.8020   27.5050   46.3370 C   0  0  0  0  0  0  0  0  0  0  0  0
   42.7260   26.7500   45.9080 C   0  0  0  0  0  0  0  0  0  0  0  0
   42.2790   25.7200   46.7040 C   0  0  0  0  0  0  0  0  0  0  0  0
   41.3290   24.9450   46.4740 O   0  0  0  0  0  0  0  0  0  0  0  0
   42.9510   25.5490   47.8430 N   0  0  0  0  0  0  0  0  0  0  0  0
   43.9820   26.3060   48.2060 C   0  0  0  0  0  0  0  0  0  0  0  0
   44.5890   26.1180   49.2830 O   0  0  0  0  0  0  0  0  0  0  0  0
   47.1937   33.2704   47.3118 H   0  0  0  0  0  0  0  0  0  0  0  0
   48.2071   32.9283   45.2607 H   0  0  0  0  0  0  0  0  0  0  0  0
   47.3855   29.5386   45.6343 H   0  0  0  0  0  0  0  0  0  0  0  0
   48.5632   30.7877   45.8242 H   0  0  0  0  0  0  0  0  0  0  0  0
   47.0243   30.9406   47.9804 H   0  0  0  0  0  0  0  0  0  0  0  0
   44.8701   36.4713   42.3304 H   0  0  0  0  0  0  0  0  0  0  0  0
   47.0297   35.4333   41.5220 H   0  0  0  0  0  0  0  0  0  0  0  0
   43.1614   36.4885   44.0870 H   0  0  0  0  0  0  0  0  0  0  0  0
   44.9324   33.1401   47.5660 H   0  0  0  0  0  0  0  0  0  0  0  0
   45.5787   30.0254   48.7880 H   0  0  0  0  0  0  0  0  0  0  0  0
   44.0101   29.6161   47.9061 H   0  0  0  0  0  0  0  0  0  0  0  0
   46.1493   28.2575   46.6995 H   0  0  0  0  0  0  0  0  0  0  0  0
   46.1551   27.9871   48.5099 H   0  0  0  0  0  0  0  0  0  0  0  0
   44.1376   28.3226   45.6821 H   0  0  0  0  0  0  0  0  0  0  0  0
   42.2360   26.9686   44.9477 H   0  0  0  0  0  0  0  0  0  0  0  0
   42.6559   24.7908   48.4746 H   0  0  0  0  0  0  0  0  0  0  0  0
  1 13  1  0
  1  5  1  0
  2  1  1  0
  3  2  1  0
  3  4  1  0
  4  5  1  0
  6 12  1  0
  6 11  2  0
  7  6  1  0
  8  7  2  0
  8  9  1  0
  9 10  2  0
 10 11  1  0
 10  2  1  0
 14  5  1  0
 14 15  1  0
 16 15  1  0
 17 16  1  0
 17 23  1  0
 18 17  1  0
 19 18  2  0
 19 20  1  0
 20 22  1  0
 21 20  2  0
 22 23  1  0
 23 24  2  0
  1 25  1  1
  2 26  1  1
  4 27  1  0
  4 28  1  0
  5 29  1  1
  7 30  1  0
  8 31  1  0
 12 32  1  0
 13 33  1  0
 15 34  1  0
 15 35  1  0
 16 36  1  0
 16 37  1  0
 18 38  1  0
 19 39  1  0
 22 40  1  0
M  ISO  8  25  13  26  13  27  13  28  13  29  13  30  14  31  14  32   3
M  ISO  8  33   3  34   8  35   8  36   8  37   8  38  14  39  14  40   9
M  END
>  <minimizedAffinity>  (1) 
-5.75852203

>  <minimizedRMSD>  (1) 
1.40428424

$$$$
