
     RDKit          3D

 43 45  0  0  0  0  0  0  0  0999 V2000
   45.6330   31.5390   47.0940 C   0  0  0  0  0  0  0  0  0  0  0  0
   45.4280   32.0030   48.3880 C   0  0  0  0  0  0  0  0  0  0  0  0
   45.1960   31.1720   49.4700 C   0  0  0  0  0  0  0  0  0  0  0  0
   45.1700   29.8210   49.2260 C   0  0  0  0  0  0  0  0  0  0  0  0
   45.3750   29.3550   47.9300 C   0  0  0  0  0  0  0  0  0  0  0  0
   45.5950   30.2090   46.9280 N   0  0  0  0  0  0  0  0  0  0  0  0
   44.7750   36.5670   43.8490 C   0  0  0  0  0  0  0  0  0  0  0  0
   45.6710   36.2730   42.8150 C   0  0  0  0  0  0  0  0  0  0  0  0
   46.3150   35.0470   42.8480 C   0  0  0  0  0  0  0  0  0  0  0  0
   46.0670   34.1720   43.8670 N   0  0  0  0  0  0  0  0  0  0  0  0
   45.1870   34.5030   44.8490 C   0  0  0  0  0  0  0  0  0  0  0  0
   44.5440   35.7000   44.8380 N   0  0  0  0  0  0  0  0  0  0  0  0
   45.8710   32.5010   46.0190 C   0  0  0  0  0  0  0  0  0  0  0  0
   46.8740   32.3150   45.2770 O   0  0  0  0  0  0  0  0  0  0  0  0
   44.9510   33.5760   45.8930 N   0  0  0  0  0  0  0  0  0  0  0  0
   45.3460   27.9260   47.6880 C   0  0  0  0  0  0  0  0  0  0  0  0
   44.5980   27.1450   48.4200 C   0  0  0  0  0  0  0  0  0  0  0  0
   44.4590   25.6600   48.2970 C   0  0  0  0  0  0  0  0  0  0  0  0
   45.2200   23.3970   46.5430 Cl  0  0  0  0  0  0  0  0  0  0  0  0
   43.6760   24.2410   46.4800 C   0  0  0  0  0  0  0  0  0  0  0  0
   43.3890   25.2940   47.3360 C   0  0  0  0  0  0  0  0  0  0  0  0
   42.1790   25.9570   47.2880 C   0  0  0  0  0  0  0  0  0  0  0  0
   41.2150   25.5520   46.3480 C   0  0  0  0  0  0  0  0  0  0  0  0
   41.5130   24.4980   45.4990 C   0  0  0  0  0  0  0  0  0  0  0  0
   42.7350   23.8340   45.5520 C   0  0  0  0  0  0  0  0  0  0  0  0
   43.0290   22.7090   44.6310 C   0  0  0  0  0  0  0  0  0  0  0  0
   45.4514   33.0890   48.5614 H   0  0  0  0  0  0  0  0  0  0  0  0
   45.0393   31.5760   50.4811 H   0  0  0  0  0  0  0  0  0  0  0  0
   44.9887   29.1126   50.0477 H   0  0  0  0  0  0  0  0  0  0  0  0
   44.2495   37.5334   43.8470 H   0  0  0  0  0  0  0  0  0  0  0  0
   45.8577   36.9914   42.0032 H   0  0  0  0  0  0  0  0  0  0  0  0
   47.0264   34.7781   42.0533 H   0  0  0  0  0  0  0  0  0  0  0  0
   44.1492   33.6765   46.5317 H   0  0  0  0  0  0  0  0  0  0  0  0
   45.9586   27.4963   46.8817 H   0  0  0  0  0  0  0  0  0  0  0  0
   44.0073   27.6302   49.2110 H   0  0  0  0  0  0  0  0  0  0  0  0
   45.4133   25.2390   47.9475 H   0  0  0  0  0  0  0  0  0  0  0  0
   44.1915   25.2544   49.2839 H   0  0  0  0  0  0  0  0  0  0  0  0
   41.9720   26.7904   47.9755 H   0  0  0  0  0  0  0  0  0  0  0  0
   40.2424   26.0623   46.2876 H   0  0  0  0  0  0  0  0  0  0  0  0
   40.7621   24.1770   44.7620 H   0  0  0  0  0  0  0  0  0  0  0  0
   43.2645   21.8079   45.2163 H   0  0  0  0  0  0  0  0  0  0  0  0
   42.1513   22.5153   43.9969 H   0  0  0  0  0  0  0  0  0  0  0  0
   43.8892   22.9695   43.9969 H   0  0  0  0  0  0  0  0  0  0  0  0
  1  2  2  0
  2  3  1  0
  4  3  2  0
  5  4  1  0
  6  1  1  0
  6  5  2  0
  7 12  2  0
  8  9  2  0
  8  7  1  0
  9 10  1  0
 10 11  2  0
 11 15  1  0
 12 11  1  0
 13  1  1  0
 14 13  2  0
 15 13  1  0
 16  5  1  0
 16 17  2  0
 18 17  1  0
 20 19  1  0
 20 21  2  0
 21 18  1  0
 22 21  1  0
 23 22  2  0
 24 25  2  0
 24 23  1  0
 25 20  1  0
 26 25  1  0
  2 27  1  0
  3 28  1  0
  4 29  1  0
  7 30  1  0
  8 31  1  0
  9 32  1  0
 15 33  1  0
 16 34  1  0
 17 35  1  0
 18 36  1  0
 18 37  1  0
 22 38  1  0
 23 39  1  0
 24 40  1  0
 26 41  1  0
 26 42  1  0
 26 43  1  0
M  ISO  8  27  14  28  14  29  14  30  14  31  14  32  14  36   8  37   8
M  ISO  6  38  14  39  14  40  14  41   8  42   8  43   8
M  END
>  <minimizedAffinity>  (1) 
-6.13406229

>  <minimizedRMSD>  (1) 
0.0288143028

$$$$
