
     RDKit          3D

 37 39  0  0  1  0  0  0  0  0999 V2000
   46.6090   32.9130   46.7470 C   0  0  2  0  0  0  0  0  0  0  0  0
   47.0600   32.7920   45.3430 C   0  0  1  0  0  0  0  0  0  0  0  0
   46.6130   31.4490   44.9480 O   0  0  0  0  0  0  0  0  0  0  0  0
   47.2530   30.7630   46.0010 C   0  0  0  0  0  0  0  0  0  0  0  0
   46.5700   31.4660   47.2180 C   0  0  2  0  0  0  0  0  0  0  0  0
   44.7180   35.2290   43.9930 C   0  0  0  0  0  0  0  0  0  0  0  0
   45.3410   35.6850   42.8240 C   0  0  0  0  0  0  0  0  0  0  0  0
   46.5900   35.1450   42.4740 C   0  0  0  0  0  0  0  0  0  0  0  0
   47.1380   34.2050   43.2890 N   0  0  0  0  0  0  0  0  0  0  0  0
   46.5170   33.7810   44.4110 C   0  0  0  0  0  0  0  0  0  0  0  0
   45.3040   34.2850   44.7750 N   0  0  0  0  0  0  0  0  0  0  0  0
   43.4750   35.7420   44.3790 O   0  0  0  0  0  0  0  0  0  0  0  0
   45.2690   33.4230   46.7760 O   0  0  0  0  0  0  0  0  0  0  0  0
   45.3100   30.9700   47.2530 O   0  0  0  0  0  0  0  0  0  0  0  0
   45.0390   29.8580   48.0060 C   0  0  0  0  0  0  0  0  0  0  0  0
   44.7810   28.6140   47.2440 C   0  0  0  0  0  0  0  0  0  0  0  0
   44.7590   27.3850   48.1680 C   0  0  0  0  0  0  0  0  0  0  0  0
   43.9150   26.2620   47.5960 C   0  0  0  0  0  0  0  0  0  0  0  0
   45.3840   26.1230   47.7640 C   0  0  0  0  0  0  0  0  0  0  0  0
   47.2484   33.5734   47.3513 H   0  0  0  0  0  0  0  0  0  0  0  0
   48.1452   32.9651   45.2951 H   0  0  0  0  0  0  0  0  0  0  0  0
   47.0399   29.6841   45.9775 H   0  0  0  0  0  0  0  0  0  0  0  0
   48.3520   30.8081   45.9900 H   0  0  0  0  0  0  0  0  0  0  0  0
   47.0101   31.3394   48.2181 H   0  0  0  0  0  0  0  0  0  0  0  0
   44.8627   36.4492   42.1938 H   0  0  0  0  0  0  0  0  0  0  0  0
   47.1114   35.4746   41.5632 H   0  0  0  0  0  0  0  0  0  0  0  0
   43.0298   36.4305   43.8242 H   0  0  0  0  0  0  0  0  0  0  0  0
   44.9783   33.5336   47.7159 H   0  0  0  0  0  0  0  0  0  0  0  0
   45.9009   29.6780   48.6654 H   0  0  0  0  0  0  0  0  0  0  0  0
   44.1052   30.0798   48.5434 H   0  0  0  0  0  0  0  0  0  0  0  0
   43.8078   28.6992   46.7384 H   0  0  0  0  0  0  0  0  0  0  0  0
   45.5909   28.4822   46.5115 H   0  0  0  0  0  0  0  0  0  0  0  0
   44.8441   27.9763   49.0917 H   0  0  0  0  0  0  0  0  0  0  0  0
   43.4782   26.3536   46.5906 H   0  0  0  0  0  0  0  0  0  0  0  0
   43.0287   25.6986   47.9230 H   0  0  0  0  0  0  0  0  0  0  0  0
   45.7826   25.4425   48.5309 H   0  0  0  0  0  0  0  0  0  0  0  0
   46.2112   25.8588   47.0888 H   0  0  0  0  0  0  0  0  0  0  0  0
  1 13  1  0
  1  5  1  0
  2  1  1  0
  3  2  1  0
  3  4  1  0
  4  5  1  0
  5 14  1  0
  6 12  1  0
  6 11  2  0
  7  6  1  0
  8  7  2  0
  8  9  1  0
  9 10  2  0
 10 11  1  0
 10  2  1  0
 14 15  1  0
 16 15  1  0
 16 17  1  0
 18 19  1  0
 18 17  1  0
 19 17  1  0
  1 20  1  1
  2 21  1  1
  4 22  1  0
  4 23  1  0
  5 24  1  1
  7 25  1  0
  8 26  1  0
 12 27  1  0
 13 28  1  0
 15 29  1  0
 15 30  1  0
 16 31  1  0
 16 32  1  0
 17 33  1  0
 18 34  1  0
 18 35  1  0
 19 36  1  0
 19 37  1  0
M  ISO  8  20  13  21  13  22  13  23  13  24  13  25  14  26  14  27   3
M  ISO  8  28   3  29   8  30   8  31   8  32   8  33  13  34  13  35  13
M  ISO  2  36  13  37  13
M  END
>  <minimizedAffinity>  (1) 
-5.0827446

>  <minimizedRMSD>  (1) 
1.02857339

$$$$
