
     RDKit          3D

 31 32  0  0  1  0  0  0  0  0999 V2000
   46.6800   32.8480   46.6430 C   0  0  2  0  0  0  0  0  0  0  0  0
   47.0560   32.7360   45.2170 C   0  0  1  0  0  0  0  0  0  0  0  0
   46.5430   31.4170   44.8260 O   0  0  0  0  0  0  0  0  0  0  0  0
   47.2050   30.6920   45.8400 C   0  0  0  0  0  0  0  0  0  0  0  0
   46.6030   31.3980   47.0900 C   0  0  2  0  0  0  0  0  0  0  0  0
   44.7130   35.2360   43.9760 C   0  0  0  0  0  0  0  0  0  0  0  0
   45.3380   35.7340   42.8190 C   0  0  0  0  0  0  0  0  0  0  0  0
   46.5850   35.1930   42.4540 C   0  0  0  0  0  0  0  0  0  0  0  0
   47.1350   34.2200   43.2280 N   0  0  0  0  0  0  0  0  0  0  0  0
   46.5120   33.7620   44.3340 C   0  0  0  0  0  0  0  0  0  0  0  0
   45.3040   34.2600   44.7180 N   0  0  0  0  0  0  0  0  0  0  0  0
   43.4720   35.7360   44.3920 O   0  0  0  0  0  0  0  0  0  0  0  0
   45.3600   33.4110   46.7430 O   0  0  0  0  0  0  0  0  0  0  0  0
   45.3300   30.9530   47.1850 O   0  0  0  0  0  0  0  0  0  0  0  0
   44.9900   30.0550   48.1580 C   0  0  0  0  0  0  0  0  0  0  0  0
   45.0620   28.6330   47.7870 C   0  0  0  0  0  0  0  0  0  0  0  0
   44.9160   27.8400   48.9390 O   0  0  0  0  0  0  0  0  0  0  0  0
   47.3747   33.4694   47.2272 H   0  0  0  0  0  0  0  0  0  0  0  0
   48.1431   32.8688   45.1139 H   0  0  0  0  0  0  0  0  0  0  0  0
   46.9529   29.6217   45.8113 H   0  0  0  0  0  0  0  0  0  0  0  0
   48.3034   30.6979   45.7808 H   0  0  0  0  0  0  0  0  0  0  0  0
   47.0825   31.2347   48.0664 H   0  0  0  0  0  0  0  0  0  0  0  0
   44.8658   36.5239   42.2164 H   0  0  0  0  0  0  0  0  0  0  0  0
   47.1073   35.5524   41.5551 H   0  0  0  0  0  0  0  0  0  0  0  0
   43.0235   36.4461   43.8678 H   0  0  0  0  0  0  0  0  0  0  0  0
   45.1169   33.5147   47.6971 H   0  0  0  0  0  0  0  0  0  0  0  0
   45.6660   30.2134   49.0112 H   0  0  0  0  0  0  0  0  0  0  0  0
   43.9293   30.2475   48.3770 H   0  0  0  0  0  0  0  0  0  0  0  0
   44.2563   28.3984   47.0758 H   0  0  0  0  0  0  0  0  0  0  0  0
   46.0358   28.4249   47.3196 H   0  0  0  0  0  0  0  0  0  0  0  0
   45.0202   28.4059   49.7446 H   0  0  0  0  0  0  0  0  0  0  0  0
  1 13  1  0
  1  5  1  0
  2  1  1  0
  3  2  1  0
  3  4  1  0
  4  5  1  0
  5 14  1  0
  6 12  1  0
  6 11  2  0
  7  6  1  0
  8  7  2  0
  8  9  1  0
  9 10  2  0
 10 11  1  0
 10  2  1  0
 14 15  1  0
 16 15  1  0
 16 17  1  0
  1 18  1  1
  2 19  1  1
  4 20  1  0
  4 21  1  0
  5 22  1  1
  7 23  1  0
  8 24  1  0
 12 25  1  0
 13 26  1  0
 15 27  1  0
 15 28  1  0
 16 29  1  0
 16 30  1  0
 17 31  1  0
M  ISO  8  18  13  19  13  20  13  21  13  22  13  23  14  24  14  25   3
M  ISO  6  26   3  27   8  28   8  29   8  30   8  31   3
M  END
>  <minimizedAffinity>  (1) 
-4.99969053

>  <minimizedRMSD>  (1) 
0.0888272673

$$$$
