
     RDKit          3D

 48 51  0  0  0  0  0  0  0  0999 V2000
   45.6680   31.5560   47.0450 C   0  0  0  0  0  0  0  0  0  0  0  0
   45.4090   32.0170   48.3390 C   0  0  0  0  0  0  0  0  0  0  0  0
   45.1900   31.1750   49.4190 C   0  0  0  0  0  0  0  0  0  0  0  0
   45.2340   29.8250   49.1810 C   0  0  0  0  0  0  0  0  0  0  0  0
   45.4910   29.3650   47.8920 C   0  0  0  0  0  0  0  0  0  0  0  0
   45.6940   30.2290   46.8980 N   0  0  0  0  0  0  0  0  0  0  0  0
   44.7650   36.5950   43.8460 C   0  0  0  0  0  0  0  0  0  0  0  0
   45.6460   36.3190   42.8030 C   0  0  0  0  0  0  0  0  0  0  0  0
   46.3060   35.0800   42.8130 C   0  0  0  0  0  0  0  0  0  0  0  0
   46.0700   34.1960   43.8280 N   0  0  0  0  0  0  0  0  0  0  0  0
   45.1950   34.5250   44.8220 C   0  0  0  0  0  0  0  0  0  0  0  0
   44.5420   35.7200   44.8360 N   0  0  0  0  0  0  0  0  0  0  0  0
   45.8860   32.5200   45.9800 C   0  0  0  0  0  0  0  0  0  0  0  0
   46.8780   32.3470   45.2180 O   0  0  0  0  0  0  0  0  0  0  0  0
   44.9550   33.5950   45.8770 N   0  0  0  0  0  0  0  0  0  0  0  0
   45.5340   27.9340   47.6590 C   0  0  0  0  0  0  0  0  0  0  0  0
   44.4340   27.2500   47.5030 C   0  0  0  0  0  0  0  0  0  0  0  0
   44.3250   25.7790   47.2570 C   0  0  0  0  0  0  0  0  0  0  0  0
   44.3540   23.0810   46.0550 Cl  0  0  0  0  0  0  0  0  0  0  0  0
   42.9760   24.1790   46.0260 C   0  0  0  0  0  0  0  0  0  0  0  0
   43.0320   25.4320   46.6120 C   0  0  0  0  0  0  0  0  0  0  0  0
   41.9540   26.2900   46.5920 C   0  0  0  0  0  0  0  0  0  0  0  0
   40.7720   25.8840   45.9630 C   0  0  0  0  0  0  0  0  0  0  0  0
   40.7260   24.6430   45.3860 C   0  0  0  0  0  0  0  0  0  0  0  0
   41.8090   23.7800   45.4070 C   0  0  0  0  0  0  0  0  0  0  0  0
   41.7870   22.4560   44.8010 C   0  0  0  0  0  0  0  0  0  0  0  0
   42.1140   22.2000   43.4870 C   0  0  0  0  0  0  0  0  0  0  0  0
   42.0950   20.9480   42.9130 C   0  0  0  0  0  0  0  0  0  0  0  0
   41.7350   19.8870   43.6590 N   0  0  0  0  0  0  0  0  0  0  0  0
   41.4130   20.1220   44.9430 C   0  0  0  0  0  0  0  0  0  0  0  0
   41.4360   21.3490   45.4940 N   0  0  0  0  0  0  0  0  0  0  0  0
   45.3773   33.1033   48.5094 H   0  0  0  0  0  0  0  0  0  0  0  0
   44.9894   31.5733   50.4246 H   0  0  0  0  0  0  0  0  0  0  0  0
   45.0677   29.1115   50.0015 H   0  0  0  0  0  0  0  0  0  0  0  0
   44.2367   37.5598   43.8573 H   0  0  0  0  0  0  0  0  0  0  0  0
   45.8190   37.0481   41.9977 H   0  0  0  0  0  0  0  0  0  0  0  0
   47.0096   34.8220   42.0078 H   0  0  0  0  0  0  0  0  0  0  0  0
   44.1593   33.6939   46.5235 H   0  0  0  0  0  0  0  0  0  0  0  0
   46.5052   27.4195   47.6133 H   0  0  0  0  0  0  0  0  0  0  0  0
   43.4905   27.8128   47.5580 H   0  0  0  0  0  0  0  0  0  0  0  0
   45.1489   25.4639   46.5997 H   0  0  0  0  0  0  0  0  0  0  0  0
   44.3789   25.2608   48.2258 H   0  0  0  0  0  0  0  0  0  0  0  0
   42.0218   27.2811   47.0643 H   0  0  0  0  0  0  0  0  0  0  0  0
   39.8963   26.5490   45.9326 H   0  0  0  0  0  0  0  0  0  0  0  0
   39.7987   24.3211   44.8896 H   0  0  0  0  0  0  0  0  0  0  0  0
   42.4094   23.0508   42.8555 H   0  0  0  0  0  0  0  0  0  0  0  0
   42.3711   20.8166   41.8563 H   0  0  0  0  0  0  0  0  0  0  0  0
   41.1166   19.2704   45.5730 H   0  0  0  0  0  0  0  0  0  0  0  0
  1  2  2  0
  2  3  1  0
  4  3  2  0
  5  4  1  0
  6  1  1  0
  6  5  2  0
  7 12  2  0
  8  9  2  0
  8  7  1  0
  9 10  1  0
 10 11  2  0
 11 12  1  0
 11 15  1  0
 13  1  1  0
 14 13  2  0
 15 13  1  0
 16  5  1  0
 17 16  2  0
 18 17  1  0
 20 19  1  0
 20 21  2  0
 21 18  1  0
 22 21  1  0
 23 22  2  0
 24 25  2  0
 24 23  1  0
 25 20  1  0
 26 25  1  0
 26 31  1  0
 27 26  2  0
 28 27  1  0
 28 29  2  0
 29 30  1  0
 30 31  2  0
  2 32  1  0
  3 33  1  0
  4 34  1  0
  7 35  1  0
  8 36  1  0
  9 37  1  0
 15 38  1  0
 16 39  1  0
 17 40  1  0
 18 41  1  0
 18 42  1  0
 22 43  1  0
 23 44  1  0
 24 45  1  0
 27 46  1  0
 28 47  1  0
 30 48  1  0
M  ISO  8  32  14  33  14  34  14  35  14  36  14  37  14  41   8  42   8
M  ISO  6  43  14  44  14  45  14  46  14  47  14  48  14
M  END
>  <minimizedAffinity>  (1) 
-6.13226223

>  <minimizedRMSD>  (1) 
1.14687443

$$$$
