
     RDKit          3D

 42 44  0  0  1  0  0  0  0  0999 V2000
   46.3520   32.4770   46.8950 C   0  0  2  0  0  0  0  0  0  0  0  0
   47.0700   32.5390   45.6060 C   0  0  1  0  0  0  0  0  0  0  0  0
   46.8560   31.2040   45.0310 O   0  0  0  0  0  0  0  0  0  0  0  0
   47.3550   30.4820   46.1400 C   0  0  0  0  0  0  0  0  0  0  0  0
   46.3780   30.9900   47.2310 C   0  0  2  0  0  0  0  0  0  0  0  0
   44.9270   35.1510   44.2190 C   0  0  0  0  0  0  0  0  0  0  0  0
   45.5750   35.5150   43.0420 C   0  0  0  0  0  0  0  0  0  0  0  0
   46.7760   34.8520   42.7010 C   0  0  0  0  0  0  0  0  0  0  0  0
   47.2500   33.8920   43.5270 N   0  0  0  0  0  0  0  0  0  0  0  0
   46.5960   33.5570   44.6680 C   0  0  0  0  0  0  0  0  0  0  0  0
   45.4400   34.1770   45.0220 N   0  0  0  0  0  0  0  0  0  0  0  0
   43.7360   35.7690   44.6090 O   0  0  0  0  0  0  0  0  0  0  0  0
   44.9780   32.8530   46.6970 O   0  0  0  0  0  0  0  0  0  0  0  0
   45.1740   30.4060   47.0150 O   0  0  0  0  0  0  0  0  0  0  0  0
   45.0240   29.0710   47.2580 C   0  0  0  0  0  0  0  0  0  0  0  0
   44.7880   28.2240   46.0050 C   0  0  0  0  0  0  0  0  0  0  0  0
   42.4500   28.0710   45.4720 C   0  0  0  0  0  0  0  0  0  0  0  0
   43.5350   27.4860   46.1460 C   0  0  0  0  0  0  0  0  0  0  0  0
   43.2090   26.3310   46.8170 C   0  0  0  0  0  0  0  0  0  0  0  0
   41.9690   25.7640   46.8580 C   0  0  0  0  0  0  0  0  0  0  0  0
   40.9220   26.3510   46.1920 C   0  0  0  0  0  0  0  0  0  0  0  0
   41.1670   27.5270   45.4850 C   0  0  0  0  0  0  0  0  0  0  0  0
   42.4650   29.2400   44.7110 O   0  0  0  0  0  0  0  0  0  0  0  0
   40.0720   28.0500   44.8490 O   0  0  0  0  0  0  0  0  0  0  0  0
   46.7916   33.1302   47.6632 H   0  0  0  0  0  0  0  0  0  0  0  0
   48.1193   32.8188   45.7812 H   0  0  0  0  0  0  0  0  0  0  0  0
   47.2764   29.3949   45.9918 H   0  0  0  0  0  0  0  0  0  0  0  0
   48.4225   30.6339   46.3577 H   0  0  0  0  0  0  0  0  0  0  0  0
   46.6437   30.7807   48.2777 H   0  0  0  0  0  0  0  0  0  0  0  0
   45.1620   36.3006   42.3922 H   0  0  0  0  0  0  0  0  0  0  0  0
   47.3161   35.1127   41.7789 H   0  0  0  0  0  0  0  0  0  0  0  0
   43.3397   36.4800   44.0455 H   0  0  0  0  0  0  0  0  0  0  0  0
   44.5388   32.9732   47.5761 H   0  0  0  0  0  0  0  0  0  0  0  0
   45.9362   28.7066   47.7531 H   0  0  0  0  0  0  0  0  0  0  0  0
   44.1255   28.9643   47.8835 H   0  0  0  0  0  0  0  0  0  0  0  0
   45.6194   27.5147   45.8797 H   0  0  0  0  0  0  0  0  0  0  0  0
   44.7304   28.8801   45.1239 H   0  0  0  0  0  0  0  0  0  0  0  0
   44.0148   25.8221   47.3662 H   0  0  0  0  0  0  0  0  0  0  0  0
   41.8079   24.8355   47.4253 H   0  0  0  0  0  0  0  0  0  0  0  0
   39.9166   25.9053   46.2156 H   0  0  0  0  0  0  0  0  0  0  0  0
   43.3070   29.7494   44.6027 H   0  0  0  0  0  0  0  0  0  0  0  0
   39.1964   27.5927   44.9142 H   0  0  0  0  0  0  0  0  0  0  0  0
  1  5  1  0
  2  1  1  0
  3  2  1  0
  3  4  1  0
  4  5  1  0
  6 12  1  0
  6 11  2  0
  7  6  1  0
  8  7  2  0
  8  9  1  0
  9 10  2  0
 10 11  1  0
 10  2  1  0
 13  1  1  0
 14  5  1  0
 14 15  1  0
 16 18  1  0
 16 15  1  0
 17 22  2  0
 17 18  1  0
 18 19  2  0
 19 20  1  0
 21 20  2  0
 22 21  1  0
 23 17  1  0
 24 22  1  0
  1 25  1  1
  2 26  1  1
  4 27  1  0
  4 28  1  0
  5 29  1  1
  7 30  1  0
  8 31  1  0
 12 32  1  0
 13 33  1  0
 15 34  1  0
 15 35  1  0
 16 36  1  0
 16 37  1  0
 19 38  1  0
 20 39  1  0
 21 40  1  0
 23 41  1  0
 24 42  1  0
M  ISO  8  25  13  26  13  27  13  28  13  29  13  30  14  31  14  32   3
M  ISO  8  33   3  34   8  35   8  36   8  37   8  38  14  39  14  40  14
M  ISO  2  41   3  42   3
M  END
>  <minimizedAffinity>  (1) 
-6.15930796

>  <minimizedRMSD>  (1) 
1.52059066

$$$$
