
     RDKit          3D

 51 54  0  0  1  0  0  0  0  0999 V2000
   45.2880   27.8500   47.6010 C   0  0  0  0  0  0  0  0  0  0  0  0
   44.5290   27.0780   48.3290 C   0  0  0  0  0  0  0  0  0  0  0  0
   45.6420   31.4640   47.0570 C   0  0  0  0  0  0  0  0  0  0  0  0
   45.4800   31.9150   48.3670 C   0  0  0  0  0  0  0  0  0  0  0  0
   45.2560   31.0690   49.4340 C   0  0  0  0  0  0  0  0  0  0  0  0
   45.1930   29.7170   49.1750 C   0  0  0  0  0  0  0  0  0  0  0  0
   45.3570   29.2720   47.8600 C   0  0  0  0  0  0  0  0  0  0  0  0
   45.5700   30.1440   46.8790 N   0  0  0  0  0  0  0  0  0  0  0  0
   44.7810   36.5380   43.8890 C   0  0  0  0  0  0  0  0  0  0  0  0
   45.6760   36.2590   42.8480 C   0  0  0  0  0  0  0  0  0  0  0  0
   46.3230   35.0330   42.8600 C   0  0  0  0  0  0  0  0  0  0  0  0
   46.0770   34.1380   43.8690 N   0  0  0  0  0  0  0  0  0  0  0  0
   45.1960   34.4580   44.8580 C   0  0  0  0  0  0  0  0  0  0  0  0
   44.5560   35.6520   44.8610 N   0  0  0  0  0  0  0  0  0  0  0  0
   45.8760   32.4400   45.9960 C   0  0  0  0  0  0  0  0  0  0  0  0
   46.8730   32.2660   45.2420 O   0  0  0  0  0  0  0  0  0  0  0  0
   44.9540   33.5180   45.8970 N   0  0  0  0  0  0  0  0  0  0  0  0
   44.3480   25.6010   48.1940 C   0  0  0  0  0  0  0  0  0  0  0  0
   45.1130   23.5030   46.2380 Cl  0  0  0  0  0  0  0  0  0  0  0  0
   43.5430   24.3000   46.2970 C   0  0  0  0  0  0  0  0  0  0  0  0
   43.2560   25.2730   47.2410 C   0  0  0  0  0  0  0  0  0  0  0  0
   42.0260   25.8970   47.2870 C   0  0  0  0  0  0  0  0  0  0  0  0
   41.0410   25.5350   46.3520 C   0  0  0  0  0  0  0  0  0  0  0  0
   41.3460   24.5600   45.4160 C   0  0  0  0  0  0  0  0  0  0  0  0
   42.5960   23.9280   45.3720 C   0  0  0  0  0  0  0  0  0  0  0  0
   41.9120   21.1790   45.7180 O   0  0  0  0  0  0  0  0  0  0  0  0
   41.9630   21.7330   44.5710 C   0  0  0  0  0  0  0  0  0  0  0  0
   42.8850   22.8830   44.3480 C   0  0  1  0  0  0  0  0  0  0  0  0
   42.5600   23.3100   42.9580 C   0  0  0  0  0  0  0  0  0  0  0  0
   41.3470   22.5480   42.5050 C   0  0  0  0  0  0  0  0  0  0  0  0
   41.2340   21.4060   43.3950 N   0  0  0  0  0  0  0  0  0  0  0  0
   45.8811   27.4159   46.7826 H   0  0  0  0  0  0  0  0  0  0  0  0
   43.9589   27.5690   49.1314 H   0  0  0  0  0  0  0  0  0  0  0  0
   45.5334   32.9968   48.5587 H   0  0  0  0  0  0  0  0  0  0  0  0
   45.1322   31.4599   50.4547 H   0  0  0  0  0  0  0  0  0  0  0  0
   45.0165   28.9995   49.9899 H   0  0  0  0  0  0  0  0  0  0  0  0
   44.2548   37.5038   43.9054 H   0  0  0  0  0  0  0  0  0  0  0  0
   45.8596   36.9896   42.0464 H   0  0  0  0  0  0  0  0  0  0  0  0
   47.0337   34.7783   42.0600 H   0  0  0  0  0  0  0  0  0  0  0  0
   44.1561   33.6126   46.5414 H   0  0  0  0  0  0  0  0  0  0  0  0
   45.2863   25.1574   47.8295 H   0  0  0  0  0  0  0  0  0  0  0  0
   44.0806   25.1936   49.1802 H   0  0  0  0  0  0  0  0  0  0  0  0
   41.8193   26.6670   48.0449 H   0  0  0  0  0  0  0  0  0  0  0  0
   40.0511   26.0145   46.3631 H   0  0  0  0  0  0  0  0  0  0  0  0
   40.5797   24.2718   44.6813 H   0  0  0  0  0  0  0  0  0  0  0  0
   43.9571   22.6584   44.4486 H   0  0  0  0  0  0  0  0  0  0  0  0
   42.3501   24.3896   42.9395 H   0  0  0  0  0  0  0  0  0  0  0  0
   43.4091   23.1057   42.2891 H   0  0  0  0  0  0  0  0  0  0  0  0
   40.4496   23.1798   42.5787 H   0  0  0  0  0  0  0  0  0  0  0  0
   41.4393   22.2322   41.4553 H   0  0  0  0  0  0  0  0  0  0  0  0
   40.7249   20.5299   43.2103 H   0  0  0  0  0  0  0  0  0  0  0  0
  1  7  1  0
  1  2  2  0
  3  4  2  0
  4  5  1  0
  6  5  2  0
  7  6  1  0
  8  3  1  0
  8  7  2  0
  9 14  2  0
 10 11  2  0
 10  9  1  0
 11 12  1  0
 12 13  2  0
 13 14  1  0
 13 17  1  0
 15  3  1  0
 16 15  2  0
 17 15  1  0
 18  2  1  0
 19 20  1  0
 20 21  2  0
 21 22  1  0
 21 18  1  0
 23 22  2  0
 24 23  1  0
 25 24  2  0
 25 20  1  0
 27 26  2  0
 28 27  1  0
 28 25  1  0
 29 28  1  0
 30 29  1  0
 30 31  1  0
 31 27  1  0
  1 32  1  0
  2 33  1  0
  4 34  1  0
  5 35  1  0
  6 36  1  0
  9 37  1  0
 10 38  1  0
 11 39  1  0
 17 40  1  0
 18 41  1  0
 18 42  1  0
 22 43  1  0
 23 44  1  0
 24 45  1  0
 28 46  1  6
 29 47  1  0
 29 48  1  0
 30 49  1  0
 30 50  1  0
 31 51  1  0
M  ISO  8  34  14  35  14  36  14  37  14  38  14  39  14  41   8  42   8
M  ISO  8  43  14  44  14  45  14  46  13  47  13  48  13  49  13  50  13
M  ISO  1  51  10
M  END
>  <minimizedAffinity>  (1) 
-6.13051319

>  <minimizedRMSD>  (1) 
0.859461188

$$$$
