
     RDKit          3D

 52 55  0  0  1  0  0  0  0  0999 V2000
   45.1150   29.0390   47.2070 C   0  0  0  0  0  0  0  0  0  0  0  0
   44.9900   27.9210   46.1800 C   0  0  0  0  0  0  0  0  0  0  0  0
   42.7060   28.2620   45.4280 C   0  0  0  0  0  0  0  0  0  0  0  0
   43.6040   27.4470   46.1350 C   0  0  0  0  0  0  0  0  0  0  0  0
   43.0350   26.3320   46.6900 C   0  0  0  0  0  0  0  0  0  0  0  0
   41.7180   25.9910   46.6000 C   0  0  0  0  0  0  0  0  0  0  0  0
   40.8460   26.8070   45.9010 C   0  0  0  0  0  0  0  0  0  0  0  0
   41.3590   27.9680   45.3030 C   0  0  0  0  0  0  0  0  0  0  0  0
   42.9950   29.4400   44.7700 O   0  0  0  0  0  0  0  0  0  0  0  0
   40.4270   28.6930   44.6430 O   0  0  0  0  0  0  0  0  0  0  0  0
   40.2870   28.5980   43.2750 C   0  0  0  0  0  0  0  0  0  0  0  0
   40.1000   29.8940   42.7750 C   0  0  0  0  0  0  0  0  0  0  0  0
   39.9270   30.1430   41.4090 C   0  0  0  0  0  0  0  0  0  0  0  0
   39.9370   29.0750   40.5090 C   0  0  0  0  0  0  0  0  0  0  0  0
   40.1220   27.8090   41.0280 C   0  0  0  0  0  0  0  0  0  0  0  0
   40.2940   27.5570   42.3710 C   0  0  0  0  0  0  0  0  0  0  0  0
   45.4330   30.2230   46.6700 O   0  0  0  0  0  0  0  0  0  0  0  0
   46.4950   32.3520   46.6590 C   0  0  2  0  0  0  0  0  0  0  0  0
   47.1520   32.5350   45.3650 C   0  0  1  0  0  0  0  0  0  0  0  0
   46.9680   31.2150   44.7060 O   0  0  0  0  0  0  0  0  0  0  0  0
   47.5390   30.4470   45.7160 C   0  0  0  0  0  0  0  0  0  0  0  0
   46.5610   30.8880   46.9380 C   0  0  2  0  0  0  0  0  0  0  0  0
   44.9140   35.1730   44.2140 C   0  0  0  0  0  0  0  0  0  0  0  0
   45.4640   35.5680   42.9990 C   0  0  0  0  0  0  0  0  0  0  0  0
   46.6240   34.9170   42.5440 C   0  0  0  0  0  0  0  0  0  0  0  0
   47.1610   33.9350   43.3000 N   0  0  0  0  0  0  0  0  0  0  0  0
   46.6150   33.5630   44.4790 C   0  0  0  0  0  0  0  0  0  0  0  0
   45.4890   34.1770   44.9450 N   0  0  0  0  0  0  0  0  0  0  0  0
   43.7630   35.7840   44.7140 O   0  0  0  0  0  0  0  0  0  0  0  0
   45.0860   32.6900   46.5070 O   0  0  0  0  0  0  0  0  0  0  0  0
   44.1526   29.1409   47.7299 H   0  0  0  0  0  0  0  0  0  0  0  0
   45.9326   28.7625   47.8890 H   0  0  0  0  0  0  0  0  0  0  0  0
   45.2794   28.3004   45.1889 H   0  0  0  0  0  0  0  0  0  0  0  0
   45.6514   27.0891   46.4636 H   0  0  0  0  0  0  0  0  0  0  0  0
   43.6943   25.6563   47.2545 H   0  0  0  0  0  0  0  0  0  0  0  0
   41.3506   25.0722   47.0804 H   0  0  0  0  0  0  0  0  0  0  0  0
   39.7792   26.5523   45.8164 H   0  0  0  0  0  0  0  0  0  0  0  0
   42.2766   29.9343   44.3013 H   0  0  0  0  0  0  0  0  0  0  0  0
   40.0889   30.7405   43.4773 H   0  0  0  0  0  0  0  0  0  0  0  0
   39.7842   31.1718   41.0468 H   0  0  0  0  0  0  0  0  0  0  0  0
   39.8028   29.2361   39.4292 H   0  0  0  0  0  0  0  0  0  0  0  0
   40.1326   26.9570   40.3323 H   0  0  0  0  0  0  0  0  0  0  0  0
   40.4370   26.5246   42.7226 H   0  0  0  0  0  0  0  0  0  0  0  0
   46.9597   32.9644   47.4458 H   0  0  0  0  0  0  0  0  0  0  0  0
   48.1829   32.8731   45.5465 H   0  0  0  0  0  0  0  0  0  0  0  0
   47.4760   29.3696   45.5031 H   0  0  0  0  0  0  0  0  0  0  0  0
   48.6145   30.6042   45.8850 H   0  0  0  0  0  0  0  0  0  0  0  0
   46.8253   30.6921   47.9877 H   0  0  0  0  0  0  0  0  0  0  0  0
   45.0016   36.3718   42.4073 H   0  0  0  0  0  0  0  0  0  0  0  0
   47.0867   35.2027   41.5879 H   0  0  0  0  0  0  0  0  0  0  0  0
   43.3259   36.5101   44.2023 H   0  0  0  0  0  0  0  0  0  0  0  0
   44.6722   32.7893   47.4009 H   0  0  0  0  0  0  0  0  0  0  0  0
  2  1  1  0
  3  4  2  0
  4  2  1  0
  4  5  1  0
  6  5  2  0
  7  6  1  0
  8  3  1  0
  8  7  2  0
  9  3  1  0
 10  8  1  0
 11 10  1  0
 12 11  2  0
 13 12  1  0
 14 15  1  0
 14 13  2  0
 15 16  2  0
 16 11  1  0
 17 22  1  0
 17  1  1  0
 18 22  1  0
 19 18  1  0
 20 19  1  0
 20 21  1  0
 21 22  1  0
 23 29  1  0
 23 28  2  0
 24 23  1  0
 25 24  2  0
 25 26  1  0
 26 27  2  0
 27 28  1  0
 27 19  1  0
 30 18  1  0
  1 31  1  0
  1 32  1  0
  2 33  1  0
  2 34  1  0
  5 35  1  0
  6 36  1  0
  7 37  1  0
  9 38  1  0
 12 39  1  0
 13 40  1  0
 14 41  1  0
 15 42  1  0
 16 43  1  0
 18 44  1  1
 19 45  1  1
 21 46  1  0
 21 47  1  0
 22 48  1  1
 24 49  1  0
 25 50  1  0
 29 51  1  0
 30 52  1  0
M  ISO  8  31   8  32   8  33   8  34   8  35  14  36  14  37  14  38   3
M  ISO  8  39  14  40  14  41  14  42  14  43  14  44  13  45  13  46  13
M  ISO  6  47  13  48  13  49  14  50  14  51   3  52   3
M  END
>  <minimizedAffinity>  (1) 
-6.07511282

>  <minimizedRMSD>  (1) 
0.525214612

$$$$
