
     RDKit          3D

 27 28  0  0  1  0  0  0  0  0999 V2000
   46.8080   33.1610   42.6730 C   0  0  2  0  0  0  0  0  0  0  0  0
   46.1300   33.2080   41.3570 C   0  0  0  0  0  0  0  0  0  0  0  0
   45.3680   34.4710   41.1230 C   0  0  0  0  0  0  0  0  0  0  0  0
   44.3850   34.7860   42.2330 C   0  0  0  0  0  0  0  0  0  0  0  0
   44.9180   34.4980   43.6160 C   0  0  1  0  0  0  0  0  0  0  0  0
   46.4210   34.3070   43.5970 C   0  0  0  0  0  0  0  0  0  0  0  0
   48.2760   33.1810   42.5430 C   0  0  0  0  0  0  0  0  0  0  0  0
   48.8810   34.4490   42.6560 C   0  0  0  0  0  0  0  0  0  0  0  0
   50.2730   34.5830   42.5450 C   0  0  0  0  0  0  0  0  0  0  0  0
   50.9710   33.4290   42.3260 N   0  0  0  0  0  0  0  0  0  0  0  0
   50.3700   32.2160   42.2210 C   0  0  0  0  0  0  0  0  0  0  0  0
   49.0240   32.0990   42.3300 N   0  0  0  0  0  0  0  0  0  0  0  0
   44.5400   35.8700   44.7330 S   0  0  0  0  0  0  0  0  0  0  0  0
   46.4700   32.2111   43.1129 H   0  0  0  0  0  0  0  0  0  0  0  0
   46.8917   33.1102   40.5694 H   0  0  0  0  0  0  0  0  0  0  0  0
   45.4021   32.3835   41.3389 H   0  0  0  0  0  0  0  0  0  0  0  0
   46.0840   35.3022   41.0429 H   0  0  0  0  0  0  0  0  0  0  0  0
   44.7873   34.3375   40.1984 H   0  0  0  0  0  0  0  0  0  0  0  0
   44.1271   35.8538   42.1757 H   0  0  0  0  0  0  0  0  0  0  0  0
   43.5115   34.1344   42.0831 H   0  0  0  0  0  0  0  0  0  0  0  0
   44.4350   33.5735   43.9654 H   0  0  0  0  0  0  0  0  0  0  0  0
   46.7690   34.0821   44.6160 H   0  0  0  0  0  0  0  0  0  0  0  0
   46.8895   35.2313   43.2280 H   0  0  0  0  0  0  0  0  0  0  0  0
   48.2582   35.3384   42.8322 H   0  0  0  0  0  0  0  0  0  0  0  0
   50.7729   35.5592   42.6293 H   0  0  0  0  0  0  0  0  0  0  0  0
   50.9818   31.3188   42.0456 H   0  0  0  0  0  0  0  0  0  0  0  0
   44.6564   35.4475   46.0310 H   0  0  0  0  0  0  0  0  0  0  0  0
  1  6  1  0
  2  1  1  0
  3  2  1  0
  3  4  1  0
  4  5  1  0
  5 13  1  0
  6  5  1  0
  7  8  2  0
  7  1  1  0
  9  8  1  0
 10  9  2  0
 11 10  1  0
 11 12  2  0
 12  7  1  0
  1 14  1  1
  2 15  1  0
  2 16  1  0
  3 17  1  0
  3 18  1  0
  4 19  1  0
  4 20  1  0
  5 21  1  1
  6 22  1  0
  6 23  1  0
  8 24  1  0
  9 25  1  0
 11 26  1  0
 13 27  1  0
M  ISO  8  14  13  15  13  16  13  17  13  18  13  19  13  20  13  21  13
M  ISO  6  22  13  23  13  24  14  25  14  26  14  27  11
M  END
>  <minimizedAffinity>  (1) 
-3.86448622

>  <minimizedRMSD>  (1) 
1.50210786

$$$$
