
     RDKit          3D

 39 41  0  0  1  0  0  0  0  0999 V2000
   47.2140   34.0360   42.4570 C   0  0  2  0  0  0  0  0  0  0  0  0
   48.5930   34.5850   42.5860 C   0  0  0  0  0  0  0  0  0  0  0  0
   48.8990   35.6530   41.5900 C   0  0  0  0  0  0  0  0  0  0  0  0
   48.6730   35.1790   40.1640 C   0  0  0  0  0  0  0  0  0  0  0  0
   47.4500   34.2950   40.0020 C   0  0  2  0  0  0  0  0  0  0  0  0
   46.5530   34.4500   41.1810 C   0  0  0  0  0  0  0  0  0  0  0  0
   46.3510   34.3720   43.5900 C   0  0  0  0  0  0  0  0  0  0  0  0
   45.5380   35.4800   43.3750 C   0  0  0  0  0  0  0  0  0  0  0  0
   44.6470   35.8990   44.3740 C   0  0  0  0  0  0  0  0  0  0  0  0
   44.6450   35.1530   45.5380 N   0  0  0  0  0  0  0  0  0  0  0  0
   45.4460   34.0880   45.7130 C   0  0  0  0  0  0  0  0  0  0  0  0
   46.2730   33.7260   44.7420 N   0  0  0  0  0  0  0  0  0  0  0  0
   47.9020   32.9400   39.6820 C   0  0  0  0  0  0  0  0  0  0  0  0
   48.0030   32.5630   38.2780 C   0  0  0  0  0  0  0  0  0  0  0  0
   46.9300   32.7800   37.3370 C   0  0  0  0  0  0  0  0  0  0  0  0
   47.0950   31.9650   36.1930 C   0  0  0  0  0  0  0  0  0  0  0  0
   46.0840   32.1710   35.2960 C   0  0  0  0  0  0  0  0  0  0  0  0
   45.3030   33.0840   35.8480 N   0  0  0  0  0  0  0  0  0  0  0  0
   45.8120   33.4000   36.9920 N   0  0  0  0  0  0  0  0  0  0  0  0
   47.3465   32.9440   42.4475 H   0  0  0  0  0  0  0  0  0  0  0  0
   48.7081   35.0060   43.5957 H   0  0  0  0  0  0  0  0  0  0  0  0
   49.2921   33.7563   42.4001 H   0  0  0  0  0  0  0  0  0  0  0  0
   48.2480   36.5180   41.7847 H   0  0  0  0  0  0  0  0  0  0  0  0
   49.9599   35.9237   41.6953 H   0  0  0  0  0  0  0  0  0  0  0  0
   48.5511   36.0621   39.5196 H   0  0  0  0  0  0  0  0  0  0  0  0
   49.5473   34.5730   39.8841 H   0  0  0  0  0  0  0  0  0  0  0  0
   46.8125   34.5925   39.1564 H   0  0  0  0  0  0  0  0  0  0  0  0
   46.2563   35.5061   41.2630 H   0  0  0  0  0  0  0  0  0  0  0  0
   45.6807   33.7977   41.0275 H   0  0  0  0  0  0  0  0  0  0  0  0
   45.5938   36.0271   42.4224 H   0  0  0  0  0  0  0  0  0  0  0  0
   43.9886   36.7698   44.2393 H   0  0  0  0  0  0  0  0  0  0  0  0
   45.4156   33.5208   46.6550 H   0  0  0  0  0  0  0  0  0  0  0  0
   48.9006   32.8156   40.1261 H   0  0  0  0  0  0  0  0  0  0  0  0
   47.1137   32.2868   40.0843 H   0  0  0  0  0  0  0  0  0  0  0  0
   48.8736   33.1038   37.8785 H   0  0  0  0  0  0  0  0  0  0  0  0
   48.0288   31.4651   38.3409 H   0  0  0  0  0  0  0  0  0  0  0  0
   47.9259   31.2595   36.0447 H   0  0  0  0  0  0  0  0  0  0  0  0
   45.9488   31.6806   34.3207 H   0  0  0  0  0  0  0  0  0  0  0  0
   44.4420   33.4738   35.4385 H   0  0  0  0  0  0  0  0  0  0  0  0
  1  2  1  0
  1  7  1  0
  3  2  1  0
  4  3  1  0
  5  4  1  0
  5  6  1  0
  6  1  1  0
  7 12  1  0
  8  7  2  0
  8  9  1  0
  9 10  2  0
 10 11  1  0
 12 11  2  0
 13  5  1  0
 14 13  1  0
 15 14  1  0
 16 15  1  0
 17 18  1  0
 17 16  2  0
 18 19  1  0
 19 15  2  0
  1 20  1  6
  2 21  1  0
  2 22  1  0
  3 23  1  0
  3 24  1  0
  4 25  1  0
  4 26  1  0
  5 27  1  6
  6 28  1  0
  6 29  1  0
  8 30  1  0
  9 31  1  0
 11 32  1  0
 13 33  1  0
 13 34  1  0
 14 35  1  0
 14 36  1  0
 16 37  1  0
 17 38  1  0
 18 39  1  0
M  ISO  8  20  13  21  13  22  13  23  13  24  13  25  13  26  13  27  13
M  ISO  8  28  13  29  13  30  14  31  14  32  14  33   8  34   8  35   8
M  ISO  4  36   8  37  14  38  14  39   9
M  END
>  <minimizedAffinity>  (1) 
-5.71436071

>  <minimizedRMSD>  (1) 
2.6040957

$$$$
