
     RDKit          3D

 42 44  0  0  1  0  0  0  0  0999 V2000
   47.2130   34.0050   42.4640 C   0  0  2  0  0  0  0  0  0  0  0  0
   48.5420   34.6560   42.4960 C   0  0  0  0  0  0  0  0  0  0  0  0
   48.7470   35.5860   41.3510 C   0  0  0  0  0  0  0  0  0  0  0  0
   48.5230   34.9500   40.0030 C   0  0  0  0  0  0  0  0  0  0  0  0
   47.4100   33.9480   39.9760 C   0  0  2  0  0  0  0  0  0  0  0  0
   46.4890   34.1090   41.1680 C   0  0  0  0  0  0  0  0  0  0  0  0
   46.3220   34.4220   43.5580 C   0  0  0  0  0  0  0  0  0  0  0  0
   45.5700   35.5570   43.2690 C   0  0  0  0  0  0  0  0  0  0  0  0
   44.6660   36.0520   44.2100 C   0  0  0  0  0  0  0  0  0  0  0  0
   44.5840   35.3550   45.4030 N   0  0  0  0  0  0  0  0  0  0  0  0
   45.3330   34.2610   45.6440 C   0  0  0  0  0  0  0  0  0  0  0  0
   46.1880   33.8090   44.7250 N   0  0  0  0  0  0  0  0  0  0  0  0
   47.9920   32.6010   39.8470 C   0  0  0  0  0  0  0  0  0  0  0  0
   48.8470   32.3430   38.6530 C   0  0  0  0  0  0  0  0  0  0  0  0
   50.1860   31.9520   39.1740 C   0  0  0  0  0  0  0  0  0  0  0  0
   51.2680   31.6550   38.3700 C   0  0  0  0  0  0  0  0  0  0  0  0
   52.5040   31.2950   38.8600 C   0  0  0  0  0  0  0  0  0  0  0  0
   52.6160   31.2420   40.2510 C   0  0  0  0  0  0  0  0  0  0  0  0
   51.5310   31.5390   41.0800 C   0  0  0  0  0  0  0  0  0  0  0  0
   50.3260   31.8920   40.5610 C   0  0  0  0  0  0  0  0  0  0  0  0
   47.4725   32.9454   42.6052 H   0  0  0  0  0  0  0  0  0  0  0  0
   48.6344   35.2242   43.4334 H   0  0  0  0  0  0  0  0  0  0  0  0
   49.3040   33.8658   42.4265 H   0  0  0  0  0  0  0  0  0  0  0  0
   48.0467   36.4275   41.4581 H   0  0  0  0  0  0  0  0  0  0  0  0
   49.7987   35.9067   41.3831 H   0  0  0  0  0  0  0  0  0  0  0  0
   48.2889   35.7457   39.2804 H   0  0  0  0  0  0  0  0  0  0  0  0
   49.4454   34.4057   39.7523 H   0  0  0  0  0  0  0  0  0  0  0  0
   46.7639   34.1176   39.1020 H   0  0  0  0  0  0  0  0  0  0  0  0
   46.0072   35.0962   41.1110 H   0  0  0  0  0  0  0  0  0  0  0  0
   45.7490   33.2959   41.1316 H   0  0  0  0  0  0  0  0  0  0  0  0
   45.6881   36.0634   42.2997 H   0  0  0  0  0  0  0  0  0  0  0  0
   44.0538   36.9448   44.0148 H   0  0  0  0  0  0  0  0  0  0  0  0
   45.2387   33.7364   46.6062 H   0  0  0  0  0  0  0  0  0  0  0  0
   48.6068   32.4185   40.7407 H   0  0  0  0  0  0  0  0  0  0  0  0
   47.1298   31.9279   39.7309 H   0  0  0  0  0  0  0  0  0  0  0  0
   48.9279   33.2521   38.0389 H   0  0  0  0  0  0  0  0  0  0  0  0
   48.4190   31.5533   38.0181 H   0  0  0  0  0  0  0  0  0  0  0  0
   51.1361   31.7087   37.2793 H   0  0  0  0  0  0  0  0  0  0  0  0
   53.3504   31.0636   38.1967 H   0  0  0  0  0  0  0  0  0  0  0  0
   53.5783   30.9606   40.7035 H   0  0  0  0  0  0  0  0  0  0  0  0
   51.6546   31.4861   42.1717 H   0  0  0  0  0  0  0  0  0  0  0  0
   49.4777   32.1258   41.2211 H   0  0  0  0  0  0  0  0  0  0  0  0
  1  2  1  0
  1  7  1  0
  3  2  1  0
  4  3  1  0
  5  4  1  0
  5  6  1  0
  6  1  1  0
  7 12  1  0
  8  7  2  0
  8  9  1  0
  9 10  2  0
 10 11  1  0
 12 11  2  0
 13  5  1  0
 14 15  1  0
 14 13  1  0
 15 20  2  0
 16 17  2  0
 16 15  1  0
 17 18  1  0
 18 19  2  0
 20 19  1  0
  1 21  1  1
  2 22  1  0
  2 23  1  0
  3 24  1  0
  3 25  1  0
  4 26  1  0
  4 27  1  0
  5 28  1  6
  6 29  1  0
  6 30  1  0
  8 31  1  0
  9 32  1  0
 11 33  1  0
 13 34  1  0
 13 35  1  0
 14 36  1  0
 14 37  1  0
 16 38  1  0
 17 39  1  0
 18 40  1  0
 19 41  1  0
 20 42  1  0
M  ISO  8  21  13  22  13  23  13  24  13  25  13  26  13  27  13  28  13
M  ISO  8  29  13  30  13  31  14  32  14  33  14  34   8  35   8  36   8
M  ISO  6  37   8  38  14  39  14  40  14  41  14  42  14
M  END
>  <minimizedAffinity>  (1) 
-5.49722624

>  <minimizedRMSD>  (1) 
2.20976806

$$$$
