
     RDKit          3D

 52 55  0  0  0  0  0  0  0  0999 V2000
   45.6530   31.5730   47.0660 C   0  0  0  0  0  0  0  0  0  0  0  0
   45.4160   32.0350   48.3690 C   0  0  0  0  0  0  0  0  0  0  0  0
   45.1950   31.2050   49.4370 C   0  0  0  0  0  0  0  0  0  0  0  0
   45.2080   29.8500   49.1990 C   0  0  0  0  0  0  0  0  0  0  0  0
   45.4420   29.3860   47.9090 C   0  0  0  0  0  0  0  0  0  0  0  0
   45.6490   30.2480   46.9200 N   0  0  0  0  0  0  0  0  0  0  0  0
   44.7580   36.6150   43.8610 C   0  0  0  0  0  0  0  0  0  0  0  0
   45.6430   36.3310   42.8120 C   0  0  0  0  0  0  0  0  0  0  0  0
   46.2940   35.0990   42.8320 C   0  0  0  0  0  0  0  0  0  0  0  0
   46.0530   34.2210   43.8530 N   0  0  0  0  0  0  0  0  0  0  0  0
   45.1840   34.5470   44.8460 C   0  0  0  0  0  0  0  0  0  0  0  0
   44.5420   35.7400   44.8440 N   0  0  0  0  0  0  0  0  0  0  0  0
   45.8790   32.5370   45.9950 C   0  0  0  0  0  0  0  0  0  0  0  0
   46.8720   32.3540   45.2370 O   0  0  0  0  0  0  0  0  0  0  0  0
   44.9580   33.6140   45.8880 N   0  0  0  0  0  0  0  0  0  0  0  0
   45.4540   27.9550   47.6710 C   0  0  0  0  0  0  0  0  0  0  0  0
   44.5950   27.1790   48.2770 C   0  0  0  0  0  0  0  0  0  0  0  0
   44.4750   25.6910   48.1410 C   0  0  0  0  0  0  0  0  0  0  0  0
   44.9840   23.1300   46.7430 Cl  0  0  0  0  0  0  0  0  0  0  0  0
   43.5530   24.1310   46.5150 C   0  0  0  0  0  0  0  0  0  0  0  0
   43.3830   25.3210   47.2060 C   0  0  0  0  0  0  0  0  0  0  0  0
   42.2630   26.1070   47.0290 C   0  0  0  0  0  0  0  0  0  0  0  0
   41.2700   25.6890   46.1260 C   0  0  0  0  0  0  0  0  0  0  0  0
   41.4500   24.4990   45.4410 C   0  0  0  0  0  0  0  0  0  0  0  0
   42.5860   23.7170   45.6310 C   0  0  0  0  0  0  0  0  0  0  0  0
   42.6990   22.5070   44.8900 N   0  0  0  0  0  0  0  0  0  0  0  0
   43.3240   22.1380   43.6200 C   0  0  0  0  0  0  0  0  0  0  0  0
   42.1990   21.3260   42.9800 C   0  0  0  0  0  0  0  0  0  0  0  0
   41.8350   20.4140   44.1300 C   0  0  0  0  0  0  0  0  0  0  0  0
   42.1200   21.2350   45.3410 C   0  0  0  0  0  0  0  0  0  0  0  0
   45.4070   33.1211   48.5429 H   0  0  0  0  0  0  0  0  0  0  0  0
   45.0143   31.6065   50.4450 H   0  0  0  0  0  0  0  0  0  0  0  0
   45.0349   29.1402   50.0214 H   0  0  0  0  0  0  0  0  0  0  0  0
   44.2304   37.5801   43.8738 H   0  0  0  0  0  0  0  0  0  0  0  0
   45.8175   37.0545   42.0020 H   0  0  0  0  0  0  0  0  0  0  0  0
   46.9987   34.8336   42.0301 H   0  0  0  0  0  0  0  0  0  0  0  0
   44.1641   33.7116   46.5370 H   0  0  0  0  0  0  0  0  0  0  0  0
   46.1894   27.5214   46.9774 H   0  0  0  0  0  0  0  0  0  0  0  0
   43.8849   27.6695   48.9590 H   0  0  0  0  0  0  0  0  0  0  0  0
   45.4250   25.2883   47.7597 H   0  0  0  0  0  0  0  0  0  0  0  0
   44.2427   25.2696   49.1302 H   0  0  0  0  0  0  0  0  0  0  0  0
   42.1486   27.0481   47.5870 H   0  0  0  0  0  0  0  0  0  0  0  0
   40.3666   26.2960   45.9665 H   0  0  0  0  0  0  0  0  0  0  0  0
   40.6788   24.1645   44.7315 H   0  0  0  0  0  0  0  0  0  0  0  0
   43.5771   23.0242   43.0196 H   0  0  0  0  0  0  0  0  0  0  0  0
   44.2782   21.5998   43.7186 H   0  0  0  0  0  0  0  0  0  0  0  0
   41.3538   21.9647   42.6840 H   0  0  0  0  0  0  0  0  0  0  0  0
   42.4774   20.8066   42.0512 H   0  0  0  0  0  0  0  0  0  0  0  0
   40.7718   20.1352   44.0873 H   0  0  0  0  0  0  0  0  0  0  0  0
   42.3966   19.4682   44.1162 H   0  0  0  0  0  0  0  0  0  0  0  0
   42.8334   20.7081   45.9918 H   0  0  0  0  0  0  0  0  0  0  0  0
   41.1973   21.4122   45.9130 H   0  0  0  0  0  0  0  0  0  0  0  0
  1  2  2  0
  2  3  1  0
  4  3  2  0
  5  4  1  0
  6  1  1  0
  6  5  2  0
  7 12  2  0
  8  9  2  0
  8  7  1  0
  9 10  1  0
 10 11  2  0
 11 15  1  0
 12 11  1  0
 13  1  1  0
 14 13  2  0
 15 13  1  0
 16  5  1  0
 16 17  2  0
 18 17  1  0
 20 19  1  0
 20 21  2  0
 21 18  1  0
 22 21  1  0
 23 22  2  0
 24 25  2  0
 24 23  1  0
 25 20  1  0
 26 30  1  0
 26 25  1  0
 27 26  1  0
 28 27  1  0
 28 29  1  0
 29 30  1  0
  2 31  1  0
  3 32  1  0
  4 33  1  0
  7 34  1  0
  8 35  1  0
  9 36  1  0
 15 37  1  0
 16 38  1  0
 17 39  1  0
 18 40  1  0
 18 41  1  0
 22 42  1  0
 23 43  1  0
 24 44  1  0
 27 45  1  0
 27 46  1  0
 28 47  1  0
 28 48  1  0
 29 49  1  0
 29 50  1  0
 30 51  1  0
 30 52  1  0
M  ISO  8  31  14  32  14  33  14  34  14  35  14  36  14  40   8  41   8
M  ISO  8  42  14  43  14  44  14  45  13  46  13  47  13  48  13  49  13
M  ISO  3  50  13  51  13  52  13
M  END
>  <minimizedAffinity>  (1) 
-6.04696703

>  <minimizedRMSD>  (1) 
0.380252123

$$$$
