
     RDKit          3D

 27 29  0  0  0  0  0  0  0  0999 V2000
   44.6760   32.9530   41.2380 Br  0  0  0  0  0  0  0  0  0  0  0  0
   46.3130   33.9160   41.0130 C   0  0  0  0  0  0  0  0  0  0  0  0
   46.8440   34.7250   42.0070 C   0  0  0  0  0  0  0  0  0  0  0  0
   48.0300   35.3660   41.7240 C   0  0  0  0  0  0  0  0  0  0  0  0
   48.7000   35.2480   40.5330 C   0  0  0  0  0  0  0  0  0  0  0  0
   48.1740   34.4440   39.5440 C   0  0  0  0  0  0  0  0  0  0  0  0
   46.9760   33.7890   39.8170 C   0  0  0  0  0  0  0  0  0  0  0  0
   44.4810   35.9510   44.6940 C   0  0  0  0  0  0  0  0  0  0  0  0
   45.1880   35.8490   43.5000 C   0  0  0  0  0  0  0  0  0  0  0  0
   46.1080   34.8270   43.2540 C   0  0  0  0  0  0  0  0  0  0  0  0
   46.2520   33.9500   44.2640 N   0  0  0  0  0  0  0  0  0  0  0  0
   45.5810   34.0260   45.4240 C   0  0  0  0  0  0  0  0  0  0  0  0
   44.7040   35.0170   45.6350 N   0  0  0  0  0  0  0  0  0  0  0  0
   46.4120   32.9270   38.7580 C   0  0  0  0  0  0  0  0  0  0  0  0
   46.6890   31.6210   38.5080 C   0  0  0  0  0  0  0  0  0  0  0  0
   45.9700   31.1880   37.4550 N   0  0  0  0  0  0  0  0  0  0  0  0
   45.2380   32.2090   37.0320 C   0  0  0  0  0  0  0  0  0  0  0  0
   45.4910   33.2950   37.8190 N   0  0  0  0  0  0  0  0  0  0  0  0
   48.4662   36.0117   42.5003 H   0  0  0  0  0  0  0  0  0  0  0  0
   49.6444   35.7876   40.3690 H   0  0  0  0  0  0  0  0  0  0  0  0
   48.6818   34.3245   38.5756 H   0  0  0  0  0  0  0  0  0  0  0  0
   43.7640   36.7680   44.8623 H   0  0  0  0  0  0  0  0  0  0  0  0
   45.0156   36.6035   42.7183 H   0  0  0  0  0  0  0  0  0  0  0  0
   45.7519   33.2709   46.2055 H   0  0  0  0  0  0  0  0  0  0  0  0
   47.3977   31.0063   39.0823 H   0  0  0  0  0  0  0  0  0  0  0  0
   45.9859   30.2398   37.0530 H   0  0  0  0  0  0  0  0  0  0  0  0
   44.5389   32.1849   36.1830 H   0  0  0  0  0  0  0  0  0  0  0  0
  2  1  1  0
  2  3  2  0
  3 10  1  0
  4  3  1  0
  5  4  2  0
  6  7  2  0
  6  5  1  0
  7  2  1  0
  8 13  2  0
  9  8  1  0
 10  9  2  0
 10 11  1  0
 11 12  2  0
 12 13  1  0
 14  7  1  0
 15 14  2  0
 16 15  1  0
 17 16  1  0
 17 18  2  0
 18 14  1  0
  4 19  1  0
  5 20  1  0
  6 21  1  0
  8 22  1  0
  9 23  1  0
 12 24  1  0
 15 25  1  0
 16 26  1  0
 17 27  1  0
M  ISO  8  19  14  20  14  21  14  22  14  23  14  24  14  25  14  26   9
M  ISO  1  27  14
M  END
>  <minimizedAffinity>  (1) 
-5.36605501

>  <minimizedRMSD>  (1) 
0.43236506

$$$$
