
     RDKit          3D

 23 24  0  0  0  0  0  0  0  0999 V2000
   44.5660   33.0940   41.2500 Br  0  0  0  0  0  0  0  0  0  0  0  0
   46.2480   33.9930   41.0520 C   0  0  0  0  0  0  0  0  0  0  0  0
   46.8230   34.7600   42.0570 C   0  0  0  0  0  0  0  0  0  0  0  0
   48.0290   35.3580   41.8050 C   0  0  0  0  0  0  0  0  0  0  0  0
   48.6820   35.2250   40.6010 C   0  0  0  0  0  0  0  0  0  0  0  0
   48.1330   34.4690   39.5860 C   0  0  0  0  0  0  0  0  0  0  0  0
   46.9100   33.8660   39.8460 C   0  0  0  0  0  0  0  0  0  0  0  0
   44.4720   35.9570   44.7770 C   0  0  0  0  0  0  0  0  0  0  0  0
   45.1750   35.8810   43.5640 C   0  0  0  0  0  0  0  0  0  0  0  0
   46.0780   34.8610   43.3140 C   0  0  0  0  0  0  0  0  0  0  0  0
   46.2400   33.9430   44.3100 N   0  0  0  0  0  0  0  0  0  0  0  0
   45.5620   34.0160   45.4770 C   0  0  0  0  0  0  0  0  0  0  0  0
   44.6920   35.0090   45.7060 N   0  0  0  0  0  0  0  0  0  0  0  0
   46.3010   33.0440   38.7580 C   0  0  0  0  0  0  0  0  0  0  0  0
   46.9820   33.1850   37.5790 F   0  0  0  0  0  0  0  0  0  0  0  0
   44.9970   33.4470   38.5050 F   0  0  0  0  0  0  0  0  0  0  0  0
   46.2400   31.7160   39.1230 F   0  0  0  0  0  0  0  0  0  0  0  0
   48.4930   35.9674   42.5945 H   0  0  0  0  0  0  0  0  0  0  0  0
   49.6493   35.7254   40.4467 H   0  0  0  0  0  0  0  0  0  0  0  0
   48.6401   34.3498   38.6171 H   0  0  0  0  0  0  0  0  0  0  0  0
   43.7579   36.7727   44.9635 H   0  0  0  0  0  0  0  0  0  0  0  0
   45.0048   36.6488   42.7949 H   0  0  0  0  0  0  0  0  0  0  0  0
   45.7266   33.2500   46.2491 H   0  0  0  0  0  0  0  0  0  0  0  0
  2  1  1  0
  2  3  2  0
  3 10  1  0
  4  3  1  0
  5  4  2  0
  6  7  2  0
  6  5  1  0
  7  2  1  0
  8 13  2  0
  9  8  1  0
 10  9  2  0
 10 11  1  0
 11 12  2  0
 12 13  1  0
 14 17  1  0
 14  7  1  0
 15 14  1  0
 16 14  1  0
  4 18  1  0
  5 19  1  0
  6 20  1  0
  8 21  1  0
  9 22  1  0
 12 23  1  0
M  ISO  6  18  14  19  14  20  14  21  14  22  14  23  14
M  END
>  <minimizedAffinity>  (1) 
-5.36443377

>  <minimizedRMSD>  (1) 
0.204141423

$$$$
