
     RDKit          3D

 23 24  0  0  0  0  0  0  0  0999 V2000
   44.5610   33.0930   41.2930 Br  0  0  0  0  0  0  0  0  0  0  0  0
   46.2380   33.9900   41.0960 C   0  0  0  0  0  0  0  0  0  0  0  0
   46.8170   34.7460   42.1060 C   0  0  0  0  0  0  0  0  0  0  0  0
   48.0270   35.3500   41.8590 C   0  0  0  0  0  0  0  0  0  0  0  0
   48.6820   35.2360   40.6610 C   0  0  0  0  0  0  0  0  0  0  0  0
   48.1210   34.4850   39.6370 C   0  0  0  0  0  0  0  0  0  0  0  0
   46.9010   33.8800   39.8940 C   0  0  0  0  0  0  0  0  0  0  0  0
   44.4600   35.9590   44.8240 C   0  0  0  0  0  0  0  0  0  0  0  0
   45.1630   35.8740   43.6230 C   0  0  0  0  0  0  0  0  0  0  0  0
   46.0750   34.8360   43.3720 C   0  0  0  0  0  0  0  0  0  0  0  0
   46.2260   33.9300   44.3620 N   0  0  0  0  0  0  0  0  0  0  0  0
   45.5410   34.0190   45.5230 C   0  0  0  0  0  0  0  0  0  0  0  0
   44.6760   35.0110   45.7510 N   0  0  0  0  0  0  0  0  0  0  0  0
   46.2890   33.0690   38.7950 C   0  0  0  0  0  0  0  0  0  0  0  0
   48.4888   35.9501   42.6569 H   0  0  0  0  0  0  0  0  0  0  0  0
   49.6493   35.7379   40.5110 H   0  0  0  0  0  0  0  0  0  0  0  0
   48.6228   34.3750   38.6643 H   0  0  0  0  0  0  0  0  0  0  0  0
   43.7493   36.7783   45.0071 H   0  0  0  0  0  0  0  0  0  0  0  0
   44.9989   36.6406   42.8513 H   0  0  0  0  0  0  0  0  0  0  0  0
   45.6994   33.2561   46.2994 H   0  0  0  0  0  0  0  0  0  0  0  0
   45.6804   32.2625   39.2298 H   0  0  0  0  0  0  0  0  0  0  0  0
   45.6515   33.7153   38.1738 H   0  0  0  0  0  0  0  0  0  0  0  0
   47.0853   32.6332   38.1738 H   0  0  0  0  0  0  0  0  0  0  0  0
  2  1  1  0
  2  3  2  0
  3 10  1  0
  4  3  1  0
  5  4  2  0
  6  7  2  0
  6  5  1  0
  7  2  1  0
  8 13  2  0
  9  8  1  0
 10  9  2  0
 10 11  1  0
 11 12  2  0
 12 13  1  0
 14  7  1  0
  4 15  1  0
  5 16  1  0
  6 17  1  0
  8 18  1  0
  9 19  1  0
 12 20  1  0
 14 21  1  0
 14 22  1  0
 14 23  1  0
M  ISO  8  15  14  16  14  17  14  18  14  19  14  20  14  21   8  22   8
M  ISO  1  23   8
M  END
>  <minimizedAffinity>  (1) 
-5.24153423

>  <minimizedRMSD>  (1) 
0.0173010491

$$$$
