
     RDKit          3D

 17 18  0  0  0  0  0  0  0  0999 V2000
   44.5620   35.8430   44.8690 C   0  0  0  0  0  0  0  0  0  0  0  0
   45.1330   35.9760   43.5800 C   0  0  0  0  0  0  0  0  0  0  0  0
   46.0010   34.9590   43.1390 C   0  0  0  0  0  0  0  0  0  0  0  0
   46.2390   33.9160   43.9730 N   0  0  0  0  0  0  0  0  0  0  0  0
   45.6740   33.8200   45.2040 C   0  0  0  0  0  0  0  0  0  0  0  0
   44.8460   34.7830   45.6300 N   0  0  0  0  0  0  0  0  0  0  0  0
   45.9780   32.6490   46.0680 C   0  0  0  0  0  0  0  0  0  0  0  0
   46.9860   32.6870   47.1290 C   0  0  0  0  0  0  0  0  0  0  0  0
   45.5050   32.6480   47.4950 C   0  0  0  0  0  0  0  0  0  0  0  0
   43.8794   36.6187   45.2463 H   0  0  0  0  0  0  0  0  0  0  0  0
   44.9060   36.8447   42.9446 H   0  0  0  0  0  0  0  0  0  0  0  0
   46.4727   35.0088   42.1465 H   0  0  0  0  0  0  0  0  0  0  0  0
   45.8422   31.9974   45.1922 H   0  0  0  0  0  0  0  0  0  0  0  0
   47.6209   31.8082   47.3149 H   0  0  0  0  0  0  0  0  0  0  0  0
   47.8289   33.3496   47.3751 H   0  0  0  0  0  0  0  0  0  0  0  0
   45.0133   33.5362   47.9184 H   0  0  0  0  0  0  0  0  0  0  0  0
   44.8602   32.0066   48.1137 H   0  0  0  0  0  0  0  0  0  0  0  0
  1  6  2  0
  2  1  1  0
  3  2  2  0
  3  4  1  0
  4  5  2  0
  5  6  1  0
  5  7  1  0
  7  8  1  0
  7  9  1  0
  8  9  1  0
  1 10  1  0
  2 11  1  0
  3 12  1  0
  7 13  1  0
  8 14  1  0
  8 15  1  0
  9 16  1  0
  9 17  1  0
M  ISO  8  10  14  11  14  12  14  13  13  14  13  15  13  16  13  17  13
M  END
>  <minimizedAffinity>  (1) 
-3.47593427

>  <minimizedRMSD>  (1) 
0.955512047

$$$$
