
     RDKit          3D

 33 35  0  0  1  0  0  0  0  0999 V2000
   44.6370   32.9950   41.2540 Br  0  0  0  0  0  0  0  0  0  0  0  0
   46.2740   33.9370   41.0280 C   0  0  0  0  0  0  0  0  0  0  0  0
   46.8160   34.7290   42.0150 C   0  0  0  0  0  0  0  0  0  0  0  0
   48.0310   35.3790   41.7620 C   0  0  0  0  0  0  0  0  0  0  0  0
   48.7000   35.2600   40.5690 C   0  0  0  0  0  0  0  0  0  0  0  0
   48.1500   34.4570   39.5650 C   0  0  0  0  0  0  0  0  0  0  0  0
   46.9530   33.8290   39.8460 C   0  0  0  0  0  0  0  0  0  0  0  0
   44.4850   35.9360   44.7340 C   0  0  0  0  0  0  0  0  0  0  0  0
   45.1780   35.8550   43.5160 C   0  0  0  0  0  0  0  0  0  0  0  0
   46.0740   34.8490   43.2600 C   0  0  0  0  0  0  0  0  0  0  0  0
   46.2140   33.9760   44.2680 N   0  0  0  0  0  0  0  0  0  0  0  0
   45.5680   34.0280   45.4390 C   0  0  0  0  0  0  0  0  0  0  0  0
   44.7100   35.0070   45.6590 N   0  0  0  0  0  0  0  0  0  0  0  0
   46.4300   32.9980   38.8250 C   0  0  0  0  0  0  0  0  0  0  0  0
   45.4640   33.3590   38.0550 O   0  0  0  0  0  0  0  0  0  0  0  0
   46.7390   31.6520   38.3360 C   0  0  0  0  0  0  0  0  0  0  0  0
   47.4920   31.4100   37.2190 C   0  0  0  0  0  0  0  0  0  0  0  0
   47.8340   30.1280   36.7890 C   0  0  0  0  0  0  0  0  0  0  0  0
   47.4200   29.0200   37.4840 C   0  0  0  0  0  0  0  0  0  0  0  0
   46.6760   29.3160   38.5850 C   0  0  0  0  0  0  0  0  0  0  0  0
   46.3700   30.5290   38.9660 N   0  0  0  0  0  0  0  0  0  0  0  0
   48.4664   36.0100   42.5508 H   0  0  0  0  0  0  0  0  0  0  0  0
   49.6517   35.7869   40.4059 H   0  0  0  0  0  0  0  0  0  0  0  0
   48.6496   34.3311   38.5931 H   0  0  0  0  0  0  0  0  0  0  0  0
   43.7703   36.7513   44.9198 H   0  0  0  0  0  0  0  0  0  0  0  0
   44.9974   36.6194   42.7459 H   0  0  0  0  0  0  0  0  0  0  0  0
   45.7498   33.2639   46.2092 H   0  0  0  0  0  0  0  0  0  0  0  0
   47.1551   33.4176   38.1121 H   0  0  0  0  0  0  0  0  0  0  0  0
   44.6932   33.6470   38.6055 H   0  0  0  0  0  0  0  0  0  0  0  0
   47.8452   32.2698   36.6308 H   0  0  0  0  0  0  0  0  0  0  0  0
   48.4431   30.0038   35.8815 H   0  0  0  0  0  0  0  0  0  0  0  0
   47.6655   27.9915   37.1809 H   0  0  0  0  0  0  0  0  0  0  0  0
   46.3074   28.4784   39.1953 H   0  0  0  0  0  0  0  0  0  0  0  0
  2  1  1  0
  2  3  2  0
  3 10  1  0
  4  3  1  0
  5  4  2  0
  6  7  2  0
  6  5  1  0
  7  2  1  0
  8 13  2  0
  9  8  1  0
 10  9  2  0
 10 11  1  0
 11 12  2  0
 12 13  1  0
 14 15  1  0
 14  7  1  0
 16 14  1  0
 16 21  1  0
 17 16  2  0
 18 17  1  0
 18 19  2  0
 19 20  1  0
 20 21  2  0
  4 22  1  0
  5 23  1  0
  6 24  1  0
  8 25  1  0
  9 26  1  0
 12 27  1  0
 14 28  1  0
 15 29  1  0
 17 30  1  0
 18 31  1  0
 19 32  1  0
 20 33  1  0
M  ISO  8  22  14  23  14  24  14  25  14  26  14  27  14  28   8  29   3
M  ISO  4  30  14  31  14  32  14  33  14
M  END
>  <minimizedAffinity>  (1) 
-5.18326187

>  <minimizedRMSD>  (1) 
1.50404215

$$$$
