
     RDKit          3D

 24 26  0  0  0  0  0  0  0  0999 V2000
   46.2500   32.5870   44.8350 C   0  0  0  0  0  0  0  0  0  0  0  0
   47.3800   31.9510   44.3070 C   0  0  0  0  0  0  0  0  0  0  0  0
   47.4650   30.7350   44.9520 C   0  0  0  0  0  0  0  0  0  0  0  0
   46.4460   30.6420   45.8210 N   0  0  0  0  0  0  0  0  0  0  0  0
   45.7330   31.7660   45.7290 N   0  0  0  0  0  0  0  0  0  0  0  0
   46.1970   29.5400   46.6660 C   0  0  0  0  0  0  0  0  0  0  0  0
   44.9550   28.9280   46.8400 C   0  0  0  0  0  0  0  0  0  0  0  0
   45.0390   27.8830   47.7290 C   0  0  0  0  0  0  0  0  0  0  0  0
   46.3470   27.8680   48.0910 N   0  0  0  0  0  0  0  0  0  0  0  0
   47.0120   28.8360   47.4690 N   0  0  0  0  0  0  0  0  0  0  0  0
   44.5900   35.8560   44.8620 C   0  0  0  0  0  0  0  0  0  0  0  0
   44.9650   36.4010   43.6210 C   0  0  0  0  0  0  0  0  0  0  0  0
   45.7890   35.6420   42.7740 C   0  0  0  0  0  0  0  0  0  0  0  0
   46.1570   34.4280   43.2390 N   0  0  0  0  0  0  0  0  0  0  0  0
   45.8030   33.9090   44.4160 C   0  0  0  0  0  0  0  0  0  0  0  0
   45.0090   34.6230   45.2480 N   0  0  0  0  0  0  0  0  0  0  0  0
   48.0605   32.3412   43.5358 H   0  0  0  0  0  0  0  0  0  0  0  0
   48.2374   29.9703   44.7829 H   0  0  0  0  0  0  0  0  0  0  0  0
   44.0305   29.2407   46.3325 H   0  0  0  0  0  0  0  0  0  0  0  0
   44.2338   27.2146   48.0680 H   0  0  0  0  0  0  0  0  0  0  0  0
   46.7653   27.2003   48.7544 H   0  0  0  0  0  0  0  0  0  0  0  0
   43.9441   36.4403   45.5339 H   0  0  0  0  0  0  0  0  0  0  0  0
   44.6200   37.4012   43.3199 H   0  0  0  0  0  0  0  0  0  0  0  0
   46.1151   36.0135   41.7913 H   0  0  0  0  0  0  0  0  0  0  0  0
  1  5  2  0
  2  1  1  0
  2  3  2  0
  3  4  1  0
  4  6  1  0
  5  4  1  0
  6  7  1  0
  6 10  2  0
  7  8  2  0
  8  9  1  0
 10  9  1  0
 11 16  2  0
 12 11  1  0
 13 14  1  0
 13 12  2  0
 14 15  2  0
 15  1  1  0
 15 16  1  0
  2 17  1  0
  3 18  1  0
  7 19  1  0
  8 20  1  0
  9 21  1  0
 11 22  1  0
 12 23  1  0
 13 24  1  0
M  ISO  8  17  14  18  14  19  14  20  14  21   9  22  14  23  14  24  14
M  END
>  <minimizedAffinity>  (1) 
-4.36698771

>  <minimizedRMSD>  (1) 
3.26374722

$$$$
