
     RDKit          3D

 32 34  0  0  0  0  0  0  0  0999 V2000
   46.5660   32.7570   44.9540 C   0  0  0  0  0  0  0  0  0  0  0  0
   47.1280   31.8010   44.0990 C   0  0  0  0  0  0  0  0  0  0  0  0
   47.5720   30.7870   44.9210 C   0  0  0  0  0  0  0  0  0  0  0  0
   47.2880   31.1230   46.2040 N   0  0  0  0  0  0  0  0  0  0  0  0
   46.6810   32.3130   46.2070 N   0  0  0  0  0  0  0  0  0  0  0  0
   44.5200   35.8080   44.8660 C   0  0  0  0  0  0  0  0  0  0  0  0
   44.8370   36.3620   43.6020 C   0  0  0  0  0  0  0  0  0  0  0  0
   45.7580   35.6710   42.7930 C   0  0  0  0  0  0  0  0  0  0  0  0
   46.2850   34.5140   43.2770 N   0  0  0  0  0  0  0  0  0  0  0  0
   45.9700   34.0100   44.4750 C   0  0  0  0  0  0  0  0  0  0  0  0
   45.0840   34.6470   45.2880 N   0  0  0  0  0  0  0  0  0  0  0  0
   47.5900   27.4510   47.7250 N   0  0  0  0  0  0  0  0  0  0  0  0
   48.6930   28.2940   48.0970 C   0  0  0  0  0  0  0  0  0  0  0  0
   48.8020   29.5040   47.2280 C   0  0  0  0  0  0  0  0  0  0  0  0
   47.5710   30.3570   47.4180 C   0  0  0  0  0  0  0  0  0  0  0  0
   46.3650   29.5950   47.8480 C   0  0  0  0  0  0  0  0  0  0  0  0
   46.3620   28.1380   47.4930 C   0  0  0  0  0  0  0  0  0  0  0  0
   47.2001   31.8489   43.0024 H   0  0  0  0  0  0  0  0  0  0  0  0
   48.0712   29.8635   44.5925 H   0  0  0  0  0  0  0  0  0  0  0  0
   43.8032   36.3280   45.5185 H   0  0  0  0  0  0  0  0  0  0  0  0
   44.3780   37.3025   43.2633 H   0  0  0  0  0  0  0  0  0  0  0  0
   46.0425   36.0538   41.8018 H   0  0  0  0  0  0  0  0  0  0  0  0
   47.8457   26.9518   46.8611 H   0  0  0  0  0  0  0  0  0  0  0  0
   48.5542   28.6184   49.1389 H   0  0  0  0  0  0  0  0  0  0  0  0
   49.6174   27.7100   47.9770 H   0  0  0  0  0  0  0  0  0  0  0  0
   48.8786   29.1961   46.1747 H   0  0  0  0  0  0  0  0  0  0  0  0
   49.6989   30.0790   47.5017 H   0  0  0  0  0  0  0  0  0  0  0  0
   47.8036   31.0431   48.2457 H   0  0  0  0  0  0  0  0  0  0  0  0
   46.2841   29.6775   48.9419 H   0  0  0  0  0  0  0  0  0  0  0  0
   45.5174   30.0398   47.3061 H   0  0  0  0  0  0  0  0  0  0  0  0
   46.1200   28.0494   46.4236 H   0  0  0  0  0  0  0  0  0  0  0  0
   45.6201   27.6658   48.1538 H   0  0  0  0  0  0  0  0  0  0  0  0
  1  5  2  0
  2  3  2  0
  2  1  1  0
  3  4  1  0
  4  5  1  0
  4 15  1  0
  6 11  2  0
  7  6  1  0
  8  9  1  0
  8  7  2  0
  9 10  2  0
 10  1  1  0
 10 11  1  0
 12 13  1  0
 14 15  1  0
 14 13  1  0
 15 16  1  0
 17 12  1  0
 17 16  1  0
  2 18  1  0
  3 19  1  0
  6 20  1  0
  7 21  1  0
  8 22  1  0
 12 23  1  0
 13 24  1  0
 13 25  1  0
 14 26  1  0
 14 27  1  0
 15 28  1  0
 16 29  1  0
 16 30  1  0
 17 31  1  0
 17 32  1  0
M  ISO  8  18  14  19  14  20  14  21  14  22  14  23   5  24  13  25  13
M  ISO  7  26  13  27  13  28  13  29  13  30  13  31  13  32  13
M  END
>  <minimizedAffinity>  (1) 
-4.26808119

>  <minimizedRMSD>  (1) 
3.26284814

$$$$
