
     RDKit          3D

 37 39  0  0  1  0  0  0  0  0999 V2000
   46.6490   34.0860   44.6750 N   0  0  0  0  0  0  0  0  0  0  0  0
   47.2920   33.8940   43.4450 C   0  0  1  0  0  0  0  0  0  0  0  0
   47.8630   32.4960   43.3950 C   0  0  0  0  0  0  0  0  0  0  0  0
   46.7020   31.6170   43.4080 N   0  0  0  0  0  0  0  0  0  0  0  0
   45.9950   31.6940   44.6670 C   0  0  0  0  0  0  0  0  0  0  0  0
   45.8270   33.0610   45.2070 C   0  0  1  0  0  0  0  0  0  0  0  0
   44.6240   34.4990   41.1900 C   0  0  0  0  0  0  0  0  0  0  0  0
   45.5920   34.0930   40.3000 C   0  0  0  0  0  0  0  0  0  0  0  0
   46.7130   33.8130   41.0010 C   0  0  0  0  0  0  0  0  0  0  0  0
   46.4330   34.0430   42.2990 N   0  0  0  0  0  0  0  0  0  0  0  0
   45.1740   34.4540   42.3970 N   0  0  0  0  0  0  0  0  0  0  0  0
   41.1310   35.6430   41.4720 C   0  0  0  0  0  0  0  0  0  0  0  0
   40.6870   35.6390   40.1450 C   0  0  0  0  0  0  0  0  0  0  0  0
   41.6130   35.2350   39.1590 C   0  0  0  0  0  0  0  0  0  0  0  0
   42.8560   34.8830   39.5570 N   0  0  0  0  0  0  0  0  0  0  0  0
   43.2540   34.8970   40.8470 C   0  0  0  0  0  0  0  0  0  0  0  0
   42.3970   35.2760   41.8120 N   0  0  0  0  0  0  0  0  0  0  0  0
   46.0840   33.0240   46.7010 C   0  0  0  0  0  0  0  0  0  0  0  0
   47.1220   31.9990   47.0910 C   0  0  0  0  0  0  0  0  0  0  0  0
   46.0559   34.9220   44.5743 H   0  0  0  0  0  0  0  0  0  0  0  0
   48.0647   34.6749   43.3892 H   0  0  0  0  0  0  0  0  0  0  0  0
   48.5014   32.3071   44.2706 H   0  0  0  0  0  0  0  0  0  0  0  0
   48.4930   32.3372   42.5073 H   0  0  0  0  0  0  0  0  0  0  0  0
   46.0640   31.8935   42.6481 H   0  0  0  0  0  0  0  0  0  0  0  0
   44.9951   31.2583   44.5241 H   0  0  0  0  0  0  0  0  0  0  0  0
   46.6089   31.1478   45.3983 H   0  0  0  0  0  0  0  0  0  0  0  0
   44.8007   33.3290   44.9157 H   0  0  0  0  0  0  0  0  0  0  0  0
   45.4740   34.0108   39.2094 H   0  0  0  0  0  0  0  0  0  0  0  0
   47.6718   33.4637   40.5902 H   0  0  0  0  0  0  0  0  0  0  0  0
   40.4350   35.9525   42.2656 H   0  0  0  0  0  0  0  0  0  0  0  0
   39.6615   35.9375   39.8817 H   0  0  0  0  0  0  0  0  0  0  0  0
   41.3309   35.2074   38.0962 H   0  0  0  0  0  0  0  0  0  0  0  0
   46.4322   34.0167   47.0224 H   0  0  0  0  0  0  0  0  0  0  0  0
   45.1407   32.7436   47.1925 H   0  0  0  0  0  0  0  0  0  0  0  0
   47.1835   31.9383   48.1876 H   0  0  0  0  0  0  0  0  0  0  0  0
   46.8383   31.0169   46.6847 H   0  0  0  0  0  0  0  0  0  0  0  0
   48.1004   32.2951   46.6847 H   0  0  0  0  0  0  0  0  0  0  0  0
  1  6  1  0
  2  1  1  0
  3  4  1  0
  3  2  1  0
  4  5  1  0
  5  6  1  0
  6 18  1  0
  7 11  2  0
  8  9  2  0
  8  7  1  0
  9 10  1  0
 10 11  1  0
 10  2  1  0
 12 17  2  0
 13 12  1  0
 14 15  1  0
 14 13  2  0
 15 16  2  0
 16  7  1  0
 16 17  1  0
 18 19  1  0
  1 20  1  0
  2 21  1  6
  3 22  1  0
  3 23  1  0
  4 24  1  0
  5 25  1  0
  5 26  1  0
  6 27  1  1
  8 28  1  0
  9 29  1  0
 12 30  1  0
 13 31  1  0
 14 32  1  0
 18 33  1  0
 18 34  1  0
 19 35  1  0
 19 36  1  0
 19 37  1  0
M  ISO  8  20   5  21  13  22  13  23  13  24   5  25  13  26  13  27  13
M  ISO  8  28  14  29  14  30  14  31  14  32  14  33   8  34   8  35   8
M  ISO  2  36   8  37   8
M  END
>  <minimizedAffinity>  (1) 
-4.56392908

>  <minimizedRMSD>  (1) 
4.66294909

$$$$
