
     RDKit          3D

 38 41  0  0  1  0  0  0  0  0999 V2000
   44.7360   31.0730   48.0230 N   0  0  0  0  0  0  0  0  0  0  0  0
   45.6310   32.1730   48.0580 C   0  0  1  0  0  0  0  0  0  0  0  0
   46.9180   31.7580   48.7250 C   0  0  0  0  0  0  0  0  0  0  0  0
   47.5050   30.7630   47.8540 N   0  0  0  0  0  0  0  0  0  0  0  0
   46.7090   29.5560   47.7900 C   0  0  0  0  0  0  0  0  0  0  0  0
   45.2440   29.7890   47.7340 C   0  0  2  0  0  0  0  0  0  0  0  0
   44.6680   29.2410   46.4680 C   0  0  0  0  0  0  0  0  0  0  0  0
   45.0590   29.5540   45.1830 C   0  0  0  0  0  0  0  0  0  0  0  0
   44.2720   28.8310   44.3080 C   0  0  0  0  0  0  0  0  0  0  0  0
   43.4260   28.0990   45.0560 N   0  0  0  0  0  0  0  0  0  0  0  0
   43.6580   28.3400   46.3430 N   0  0  0  0  0  0  0  0  0  0  0  0
   45.6860   33.6380   44.8260 C   0  0  0  0  0  0  0  0  0  0  0  0
   47.0090   33.2200   44.9170 C   0  0  0  0  0  0  0  0  0  0  0  0
   47.1710   32.6200   46.1250 C   0  0  0  0  0  0  0  0  0  0  0  0
   45.9790   32.6690   46.7580 N   0  0  0  0  0  0  0  0  0  0  0  0
   45.1040   33.2840   45.9620 N   0  0  0  0  0  0  0  0  0  0  0  0
   44.5520   36.3000   42.5680 C   0  0  0  0  0  0  0  0  0  0  0  0
   43.9480   35.5960   41.5120 C   0  0  0  0  0  0  0  0  0  0  0  0
   43.9500   34.1950   41.6100 C   0  0  0  0  0  0  0  0  0  0  0  0
   44.5220   33.6170   42.7000 N   0  0  0  0  0  0  0  0  0  0  0  0
   45.0890   34.3300   43.6870 C   0  0  0  0  0  0  0  0  0  0  0  0
   45.1080   35.6680   43.6290 N   0  0  0  0  0  0  0  0  0  0  0  0
   44.2871   31.0191   48.9485 H   0  0  0  0  0  0  0  0  0  0  0  0
   45.1065   32.9676   48.6089 H   0  0  0  0  0  0  0  0  0  0  0  0
   47.5915   32.6213   48.8304 H   0  0  0  0  0  0  0  0  0  0  0  0
   46.7428   31.3612   49.7359 H   0  0  0  0  0  0  0  0  0  0  0  0
   47.5859   31.1579   46.9061 H   0  0  0  0  0  0  0  0  0  0  0  0
   47.0031   28.9975   46.8891 H   0  0  0  0  0  0  0  0  0  0  0  0
   46.9032   29.0026   48.7206 H   0  0  0  0  0  0  0  0  0  0  0  0
   44.8931   29.2272   48.6122 H   0  0  0  0  0  0  0  0  0  0  0  0
   45.8580   30.2566   44.9038 H   0  0  0  0  0  0  0  0  0  0  0  0
   44.3264   28.8499   43.2095 H   0  0  0  0  0  0  0  0  0  0  0  0
   42.7116   27.4539   44.6895 H   0  0  0  0  0  0  0  0  0  0  0  0
   47.7852   33.3515   44.1487 H   0  0  0  0  0  0  0  0  0  0  0  0
   48.0994   32.1771   46.5147 H   0  0  0  0  0  0  0  0  0  0  0  0
   44.5738   37.3992   42.5315 H   0  0  0  0  0  0  0  0  0  0  0  0
   43.4972   36.1153   40.6535 H   0  0  0  0  0  0  0  0  0  0  0  0
   43.4976   33.5771   40.8203 H   0  0  0  0  0  0  0  0  0  0  0  0
  1  2  1  0
  2  3  1  0
  4  3  1  0
  5  4  1  0
  6  5  1  0
  6  1  1  0
  7  6  1  0
  8  7  1  0
  9 10  1  0
  9  8  2  0
 10 11  1  0
 11  7  2  0
 12 13  1  0
 12 16  2  0
 13 14  2  0
 14 15  1  0
 15  2  1  0
 16 15  1  0
 17 22  2  0
 18 19  2  0
 18 17  1  0
 19 20  1  0
 20 21  2  0
 21 12  1  0
 22 21  1  0
  1 23  1  0
  2 24  1  1
  3 25  1  0
  3 26  1  0
  4 27  1  0
  5 28  1  0
  5 29  1  0
  6 30  1  1
  8 31  1  0
  9 32  1  0
 10 33  1  0
 13 34  1  0
 14 35  1  0
 17 36  1  0
 18 37  1  0
 19 38  1  0
M  ISO  8  23   5  24  13  25  13  26  13  27   5  28  13  29  13  30  13
M  ISO  8  31  14  32  14  33   9  34  14  35  14  36  14  37  14  38  14
M  END
>  <minimizedAffinity>  (1) 
-4.47617579

>  <minimizedRMSD>  (1) 
2.62022543

$$$$
