
     RDKit          3D

 30 32  0  0  1  0  0  0  0  0999 V2000
   46.0900   32.1470   45.2240 C   0  0  1  0  0  0  0  0  0  0  0  0
   47.4820   31.7040   44.9740 C   0  0  0  0  0  0  0  0  0  0  0  0
   46.9840   31.9850   46.3960 C   0  0  2  0  0  0  0  0  0  0  0  0
   44.6080   35.5360   45.3790 C   0  0  0  0  0  0  0  0  0  0  0  0
   44.8170   36.0150   44.0510 C   0  0  0  0  0  0  0  0  0  0  0  0
   45.4730   35.1550   43.1390 C   0  0  0  0  0  0  0  0  0  0  0  0
   45.8690   33.9360   43.5500 N   0  0  0  0  0  0  0  0  0  0  0  0
   45.6500   33.5130   44.8320 C   0  0  0  0  0  0  0  0  0  0  0  0
   45.0270   34.3100   45.7290 N   0  0  0  0  0  0  0  0  0  0  0  0
   46.6990   31.3930   48.7300 C   0  0  1  0  0  0  0  0  0  0  0  0
   46.8470   30.8320   47.3400 C   0  0  1  0  0  0  0  0  0  0  0  0
   45.6630   30.1690   47.0230 O   0  0  0  0  0  0  0  0  0  0  0  0
   45.0210   29.8540   48.2090 C   0  0  0  0  0  0  0  0  0  0  0  0
   45.2780   31.0700   49.0610 C   0  0  2  0  0  0  0  0  0  0  0  0
   47.6360   30.8530   49.6010 O   0  0  0  0  0  0  0  0  0  0  0  0
   44.4400   32.1090   48.7200 O   0  0  0  0  0  0  0  0  0  0  0  0
   45.1061   31.7444   44.9413 H   0  0  0  0  0  0  0  0  0  0  0  0
   47.6846   30.6716   44.6529 H   0  0  0  0  0  0  0  0  0  0  0  0
   48.3175   32.0570   44.3516 H   0  0  0  0  0  0  0  0  0  0  0  0
   47.2691   32.6367   47.2350 H   0  0  0  0  0  0  0  0  0  0  0  0
   44.1017   36.1739   46.1184 H   0  0  0  0  0  0  0  0  0  0  0  0
   44.4801   37.0171   43.7473 H   0  0  0  0  0  0  0  0  0  0  0  0
   45.6576   35.4794   42.1042 H   0  0  0  0  0  0  0  0  0  0  0  0
   46.8954   32.4722   48.8118 H   0  0  0  0  0  0  0  0  0  0  0  0
   47.7132   30.1571   47.2747 H   0  0  0  0  0  0  0  0  0  0  0  0
   43.9433   29.7034   48.0483 H   0  0  0  0  0  0  0  0  0  0  0  0
   45.3809   28.9195   48.6641 H   0  0  0  0  0  0  0  0  0  0  0  0
   45.0996   30.9007   50.1332 H   0  0  0  0  0  0  0  0  0  0  0  0
   47.3514   31.0170   50.5349 H   0  0  0  0  0  0  0  0  0  0  0  0
   44.0942   32.5377   49.5427 H   0  0  0  0  0  0  0  0  0  0  0  0
  1  3  1  0
  2  1  1  0
  2  3  1  0
  3 11  1  0
  4  9  2  0
  5  4  1  0
  6  7  1  0
  6  5  2  0
  7  8  2  0
  8  1  1  0
  8  9  1  0
 10 14  1  0
 10 15  1  0
 11 12  1  0
 11 10  1  0
 12 13  1  0
 13 14  1  0
 14 16  1  0
  1 17  1  1
  2 18  1  0
  2 19  1  0
  3 20  1  1
  4 21  1  0
  5 22  1  0
  6 23  1  0
 10 24  1  6
 11 25  1  1
 13 26  1  0
 13 27  1  0
 14 28  1  1
 15 29  1  0
 16 30  1  0
M  ISO  8  17  13  18  13  19  13  20  13  21  14  22  14  23  14  24  13
M  ISO  6  25  13  26  13  27  13  28  13  29   3  30   3
M  END
>  <minimizedAffinity>  (1) 
-5.32820988

>  <minimizedRMSD>  (1) 
1.79092419

$$$$
