
     RDKit          3D

 39 42  0  0  1  0  0  0  0  0999 V2000
   47.5590   30.0780   47.6110 N   0  0  0  0  0  0  0  0  0  0  0  0
   48.0860   29.8010   46.3310 C   0  0  1  0  0  0  0  0  0  0  0  0
   47.5770   28.4610   45.8820 C   0  0  0  0  0  0  0  0  0  0  0  0
   46.1460   28.6450   45.7180 N   0  0  0  0  0  0  0  0  0  0  0  0
   45.4880   28.8570   46.9880 C   0  0  0  0  0  0  0  0  0  0  0  0
   46.2170   29.7630   47.9250 C   0  0  2  0  0  0  0  0  0  0  0  0
   46.7960   32.5690   44.5340 C   0  0  0  0  0  0  0  0  0  0  0  0
   47.4280   31.8940   43.5000 C   0  0  0  0  0  0  0  0  0  0  0  0
   47.9940   30.7770   44.0200 C   0  0  0  0  0  0  0  0  0  0  0  0
   47.7090   30.7720   45.3490 N   0  0  0  0  0  0  0  0  0  0  0  0
   46.9910   31.8530   45.6340 N   0  0  0  0  0  0  0  0  0  0  0  0
   44.6230   35.4310   45.2820 C   0  0  0  0  0  0  0  0  0  0  0  0
   44.6890   36.2070   44.1230 C   0  0  0  0  0  0  0  0  0  0  0  0
   45.4970   35.7180   43.0900 C   0  0  0  0  0  0  0  0  0  0  0  0
   46.1580   34.5370   43.2710 N   0  0  0  0  0  0  0  0  0  0  0  0
   46.0580   33.8280   44.4080 C   0  0  0  0  0  0  0  0  0  0  0  0
   45.2890   34.2640   45.4330 N   0  0  0  0  0  0  0  0  0  0  0  0
   45.3420   30.9860   48.1190 C   0  0  1  0  0  0  0  0  0  0  0  0
   45.0440   31.3170   49.5830 C   0  0  0  0  0  0  0  0  0  0  0  0
   45.8380   32.2390   48.7220 C   0  0  2  0  0  0  0  0  0  0  0  0
   45.2480   33.4380   48.3360 O   0  0  0  0  0  0  0  0  0  0  0  0
   47.6652   31.0917   47.7593 H   0  0  0  0  0  0  0  0  0  0  0  0
   49.1823   29.8208   46.4189 H   0  0  0  0  0  0  0  0  0  0  0  0
   48.0421   28.1691   44.9289 H   0  0  0  0  0  0  0  0  0  0  0  0
   47.8138   27.6638   46.6020 H   0  0  0  0  0  0  0  0  0  0  0  0
   45.9811   29.4638   45.1152 H   0  0  0  0  0  0  0  0  0  0  0  0
   44.4970   29.2923   46.7920 H   0  0  0  0  0  0  0  0  0  0  0  0
   45.4394   27.8746   47.4805 H   0  0  0  0  0  0  0  0  0  0  0  0
   46.3681   29.2122   48.8651 H   0  0  0  0  0  0  0  0  0  0  0  0
   47.4636   32.2087   42.4466 H   0  0  0  0  0  0  0  0  0  0  0  0
   48.5731   30.0197   43.4713 H   0  0  0  0  0  0  0  0  0  0  0  0
   43.9977   35.7870   46.1140 H   0  0  0  0  0  0  0  0  0  0  0  0
   44.1353   37.1526   44.0269 H   0  0  0  0  0  0  0  0  0  0  0  0
   45.5979   36.2761   42.1475 H   0  0  0  0  0  0  0  0  0  0  0  0
   44.7985   30.7905   47.1829 H   0  0  0  0  0  0  0  0  0  0  0  0
   44.0243   31.5889   49.8931 H   0  0  0  0  0  0  0  0  0  0  0  0
   45.1981   30.8156   50.5499 H   0  0  0  0  0  0  0  0  0  0  0  0
   46.8314   32.7041   48.8052 H   0  0  0  0  0  0  0  0  0  0  0  0
   44.9937   33.9549   49.1411 H   0  0  0  0  0  0  0  0  0  0  0  0
  1  6  1  0
  2  1  1  0
  3  2  1  0
  4  3  1  0
  4  5  1  0
  5  6  1  0
  6 18  1  0
  7 11  2  0
  8  9  2  0
  8  7  1  0
  9 10  1  0
 10 11  1  0
 10  2  1  0
 12 17  2  0
 13 12  1  0
 14 15  1  0
 14 13  2  0
 15 16  2  0
 16  7  1  0
 16 17  1  0
 18 20  1  0
 18 19  1  0
 20 19  1  0
 21 20  1  0
  1 22  1  0
  2 23  1  1
  3 24  1  0
  3 25  1  0
  4 26  1  0
  5 27  1  0
  5 28  1  0
  6 29  1  1
  8 30  1  0
  9 31  1  0
 12 32  1  0
 13 33  1  0
 14 34  1  0
 18 35  1  6
 19 36  1  0
 19 37  1  0
 20 38  1  1
 21 39  1  0
M  ISO  8  22   5  23  13  24  13  25  13  26   5  27  13  28  13  29  13
M  ISO  8  30  14  31  14  32  14  33  14  34  14  35  13  36  13  37  13
M  ISO  2  38  13  39   3
M  END
>  <minimizedAffinity>  (1) 
-5.69802094

>  <minimizedRMSD>  (1) 
0.076201506

$$$$
