
     RDKit          3D

 51 55  0  0  1  0  0  0  0  0999 V2000
   48.5030   29.5830   46.1800 N   0  0  0  0  0  0  0  0  0  0  0  0
   48.1530   29.5660   44.8220 C   0  0  1  0  0  0  0  0  0  0  0  0
   46.8640   28.7980   44.6820 C   0  0  0  0  0  0  0  0  0  0  0  0
   45.8770   29.5910   45.3640 N   0  0  0  0  0  0  0  0  0  0  0  0
   46.1030   29.6320   46.7940 C   0  0  0  0  0  0  0  0  0  0  0  0
   47.5460   29.7780   47.1870 C   0  0  2  0  0  0  0  0  0  0  0  0
   47.0290   32.8280   44.0120 C   0  0  0  0  0  0  0  0  0  0  0  0
   48.0400   32.6880   43.0760 C   0  0  0  0  0  0  0  0  0  0  0  0
   48.5960   31.4670   43.2420 C   0  0  0  0  0  0  0  0  0  0  0  0
   47.9410   30.8680   44.2600 N   0  0  0  0  0  0  0  0  0  0  0  0
   47.0030   31.7020   44.7090 N   0  0  0  0  0  0  0  0  0  0  0  0
   44.6770   35.2600   45.4490 C   0  0  0  0  0  0  0  0  0  0  0  0
   44.5600   36.2130   44.4320 C   0  0  0  0  0  0  0  0  0  0  0  0
   45.2810   36.0150   43.2790 C   0  0  0  0  0  0  0  0  0  0  0  0
   46.0710   34.8980   43.1900 N   0  0  0  0  0  0  0  0  0  0  0  0
   46.1570   34.0020   44.1920 C   0  0  0  0  0  0  0  0  0  0  0  0
   45.4680   34.1640   45.3310 N   0  0  0  0  0  0  0  0  0  0  0  0
   47.6820   31.1150   47.8910 C   0  0  1  0  0  0  0  0  0  0  0  0
   47.5140   31.0660   49.4110 C   0  0  0  0  0  0  0  0  0  0  0  0
   48.8010   31.4360   48.7830 C   0  0  1  0  0  0  0  0  0  0  0  0
   50.0070   30.5030   48.8490 C   0  0  0  0  0  0  0  0  0  0  0  0
   51.2930   33.0140   50.0550 Cl  0  0  0  0  0  0  0  0  0  0  0  0
   51.1130   31.5050   50.9230 C   0  0  0  0  0  0  0  0  0  0  0  0
   50.5180   30.4490   50.2680 C   0  0  0  0  0  0  0  0  0  0  0  0
   50.4080   29.2760   51.0220 C   0  0  0  0  0  0  0  0  0  0  0  0
   50.8200   29.0840   52.3020 C   0  0  0  0  0  0  0  0  0  0  0  0
   51.4100   30.1700   52.9130 C   0  0  0  0  0  0  0  0  0  0  0  0
   51.5530   31.3700   52.2240 C   0  0  0  0  0  0  0  0  0  0  0  0
   49.1969   30.3361   46.2906 H   0  0  0  0  0  0  0  0  0  0  0  0
   48.9946   29.1076   44.2821 H   0  0  0  0  0  0  0  0  0  0  0  0
   46.5984   28.6802   43.6211 H   0  0  0  0  0  0  0  0  0  0  0  0
   46.9409   27.7850   45.1039 H   0  0  0  0  0  0  0  0  0  0  0  0
   45.9104   30.5520   44.9949 H   0  0  0  0  0  0  0  0  0  0  0  0
   45.5453   30.4855   47.2068 H   0  0  0  0  0  0  0  0  0  0  0  0
   45.7630   28.6657   47.1949 H   0  0  0  0  0  0  0  0  0  0  0  0
   47.7908   28.9401   47.8563 H   0  0  0  0  0  0  0  0  0  0  0  0
   48.3382   33.4383   42.3289 H   0  0  0  0  0  0  0  0  0  0  0  0
   49.4255   31.0416   42.6581 H   0  0  0  0  0  0  0  0  0  0  0  0
   44.1068   35.4044   46.3786 H   0  0  0  0  0  0  0  0  0  0  0  0
   43.9113   37.0933   44.5513 H   0  0  0  0  0  0  0  0  0  0  0  0
   45.2257   36.7344   42.4487 H   0  0  0  0  0  0  0  0  0  0  0  0
   47.2536   31.6429   47.0262 H   0  0  0  0  0  0  0  0  0  0  0  0
   46.9097   31.8266   49.9270 H   0  0  0  0  0  0  0  0  0  0  0  0
   47.1819   30.3150   50.1429 H   0  0  0  0  0  0  0  0  0  0  0  0
   49.4741   32.2987   48.8951 H   0  0  0  0  0  0  0  0  0  0  0  0
   49.7093   29.4942   48.5269 H   0  0  0  0  0  0  0  0  0  0  0  0
   50.8001   30.8781   48.1855 H   0  0  0  0  0  0  0  0  0  0  0  0
   49.9367   28.4156   50.5244 H   0  0  0  0  0  0  0  0  0  0  0  0
   50.6909   28.1217   52.8190 H   0  0  0  0  0  0  0  0  0  0  0  0
   51.7691   30.0873   53.9494 H   0  0  0  0  0  0  0  0  0  0  0  0
   52.0256   32.2273   52.7256 H   0  0  0  0  0  0  0  0  0  0  0  0
  1  6  1  0
  2  1  1  0
  3  2  1  0
  3  4  1  0
  4  5  1  0
  5  6  1  0
  6 18  1  0
  7 16  1  0
  7 11  2  0
  8  9  2  0
  8  7  1  0
  9 10  1  0
 10 11  1  0
 10  2  1  0
 13 12  2  0
 14 13  1  0
 15 14  2  0
 15 16  1  0
 16 17  2  0
 17 12  1  0
 18 20  1  0
 18 19  1  0
 20 21  1  0
 20 19  1  0
 21 24  1  0
 22 23  1  0
 23 28  2  0
 24 23  1  0
 24 25  2  0
 25 26  1  0
 26 27  2  0
 28 27  1  0
  1 29  1  0
  2 30  1  6
  3 31  1  0
  3 32  1  0
  4 33  1  0
  5 34  1  0
  5 35  1  0
  6 36  1  1
  8 37  1  0
  9 38  1  0
 12 39  1  0
 13 40  1  0
 14 41  1  0
 18 42  1  6
 19 43  1  0
 19 44  1  0
 20 45  1  1
 21 46  1  0
 21 47  1  0
 25 48  1  0
 26 49  1  0
 27 50  1  0
 28 51  1  0
M  ISO  8  29   5  30  13  31  13  32  13  33   5  34  13  35  13  36  13
M  ISO  8  37  14  38  14  39  14  40  14  41  14  42  13  43  13  44  13
M  ISO  7  45  13  46   8  47   8  48  14  49  14  50  14  51  14
M  END
>  <minimizedAffinity>  (1) 
-5.90171003

>  <minimizedRMSD>  (1) 
2.39884543

$$$$
