
     RDKit          3D

 42 45  0  0  1  0  0  0  0  0999 V2000
   47.1230   29.3670   46.6340 N   0  0  0  0  0  0  0  0  0  0  0  0
   46.9940   29.1020   45.2540 C   0  0  1  0  0  0  0  0  0  0  0  0
   45.8200   28.2080   45.0260 C   0  0  0  0  0  0  0  0  0  0  0  0
   44.6760   28.9860   45.4020 N   0  0  0  0  0  0  0  0  0  0  0  0
   44.6410   29.2530   46.8210 C   0  0  0  0  0  0  0  0  0  0  0  0
   45.9760   29.5940   47.4250 C   0  0  2  0  0  0  0  0  0  0  0  0
   46.2150   32.3250   44.0210 C   0  0  0  0  0  0  0  0  0  0  0  0
   46.7530   31.7730   42.8800 C   0  0  0  0  0  0  0  0  0  0  0  0
   47.1170   30.5030   43.1770 C   0  0  0  0  0  0  0  0  0  0  0  0
   46.8050   30.2900   44.4720 N   0  0  0  0  0  0  0  0  0  0  0  0
   46.2610   31.4040   44.9610 N   0  0  0  0  0  0  0  0  0  0  0  0
   44.6790   35.3750   45.4030 C   0  0  0  0  0  0  0  0  0  0  0  0
   44.7180   36.2700   44.3320 C   0  0  0  0  0  0  0  0  0  0  0  0
   45.2740   35.8040   43.1480 C   0  0  0  0  0  0  0  0  0  0  0  0
   45.7430   34.5260   43.0980 N   0  0  0  0  0  0  0  0  0  0  0  0
   45.6820   33.7030   44.1610 C   0  0  0  0  0  0  0  0  0  0  0  0
   45.1540   34.1080   45.3210 N   0  0  0  0  0  0  0  0  0  0  0  0
   45.8710   31.0140   47.9350 C   0  0  1  0  0  0  0  0  0  0  0  0
   45.5020   31.1620   49.4060 C   0  0  0  0  0  0  0  0  0  0  0  0
   46.8330   31.5810   48.9040 C   0  0  1  0  0  0  0  0  0  0  0  0
   48.0890   30.7930   49.2730 C   0  0  0  0  0  0  0  0  0  0  0  0
   49.0700   31.7050   49.6920 O   0  0  0  0  0  0  0  0  0  0  0  0
   47.7133   30.2066   46.7204 H   0  0  0  0  0  0  0  0  0  0  0  0
   47.9340   28.6277   44.9353 H   0  0  0  0  0  0  0  0  0  0  0  0
   45.7571   27.9165   43.9672 H   0  0  0  0  0  0  0  0  0  0  0  0
   45.8932   27.2772   45.6076 H   0  0  0  0  0  0  0  0  0  0  0  0
   44.7038   29.8828   44.8962 H   0  0  0  0  0  0  0  0  0  0  0  0
   43.9593   30.0986   46.9947 H   0  0  0  0  0  0  0  0  0  0  0  0
   44.3065   28.3240   47.3059 H   0  0  0  0  0  0  0  0  0  0  0  0
   46.1637   28.8767   48.2375 H   0  0  0  0  0  0  0  0  0  0  0  0
   46.8663   32.2720   41.9062 H   0  0  0  0  0  0  0  0  0  0  0  0
   47.5808   29.7797   42.4902 H   0  0  0  0  0  0  0  0  0  0  0  0
   44.2437   35.7128   46.3551 H   0  0  0  0  0  0  0  0  0  0  0  0
   44.3273   37.2943   44.4218 H   0  0  0  0  0  0  0  0  0  0  0  0
   45.3348   36.4564   42.2645 H   0  0  0  0  0  0  0  0  0  0  0  0
   45.5070   31.3630   46.9574 H   0  0  0  0  0  0  0  0  0  0  0  0
   44.7658   31.9173   49.7182 H   0  0  0  0  0  0  0  0  0  0  0  0
   45.1381   30.4874   50.1950 H   0  0  0  0  0  0  0  0  0  0  0  0
   47.4081   32.5168   48.9637 H   0  0  0  0  0  0  0  0  0  0  0  0
   47.8617   30.0898   50.0877 H   0  0  0  0  0  0  0  0  0  0  0  0
   48.4477   30.2204   48.4050 H   0  0  0  0  0  0  0  0  0  0  0  0
   49.0966   31.7297   50.6813 H   0  0  0  0  0  0  0  0  0  0  0  0
  1  6  1  0
  2  1  1  0
  3  2  1  0
  3  4  1  0
  4  5  1  0
  5  6  1  0
  6 18  1  0
  7 16  1  0
  7 11  2  0
  8  9  2  0
  8  7  1  0
  9 10  1  0
 10 11  1  0
 10  2  1  0
 13 12  2  0
 14 13  1  0
 15 14  2  0
 15 16  1  0
 16 17  2  0
 17 12  1  0
 18 20  1  0
 18 19  1  0
 20 21  1  0
 20 19  1  0
 21 22  1  0
  1 23  1  0
  2 24  1  6
  3 25  1  0
  3 26  1  0
  4 27  1  0
  5 28  1  0
  5 29  1  0
  6 30  1  1
  8 31  1  0
  9 32  1  0
 12 33  1  0
 13 34  1  0
 14 35  1  0
 18 36  1  6
 19 37  1  0
 19 38  1  0
 20 39  1  6
 21 40  1  0
 21 41  1  0
 22 42  1  0
M  ISO  8  23   5  24  13  25  13  26  13  27   5  28  13  29  13  30  13
M  ISO  8  31  14  32  14  33  14  34  14  35  14  36  13  37  13  38  13
M  ISO  4  39  13  40   8  41   8  42   3
M  END
>  <minimizedAffinity>  (1) 
-4.94063759

>  <minimizedRMSD>  (1) 
0.629684031

$$$$
