
     RDKit          3D

 36 39  0  0  0  0  0  0  0  0999 V2000
   46.1320   32.6450   47.0810 C   0  0  0  0  0  0  0  0  0  0  0  0
   45.0440   32.3520   47.8520 C   0  0  0  0  0  0  0  0  0  0  0  0
   45.2350   31.6130   48.9960 C   0  0  0  0  0  0  0  0  0  0  0  0
   46.5220   31.1760   49.3480 C   0  0  0  0  0  0  0  0  0  0  0  0
   47.5860   31.4980   48.5350 C   0  0  0  0  0  0  0  0  0  0  0  0
   47.3660   32.2090   47.4470 N   0  0  0  0  0  0  0  0  0  0  0  0
   48.9560   31.0880   48.8220 C   0  0  0  0  0  0  0  0  0  0  0  0
   49.4060   29.9020   48.2900 C   0  0  0  0  0  0  0  0  0  0  0  0
   50.7000   29.4230   48.5060 C   0  0  0  0  0  0  0  0  0  0  0  0
   51.5720   30.1670   49.2890 C   0  0  0  0  0  0  0  0  0  0  0  0
   52.8330   29.7700   49.5420 N   0  0  0  0  0  0  0  0  0  0  0  0
   53.6980   30.4650   50.2910 C   0  0  0  0  0  0  0  0  0  0  0  0
   53.3120   31.6810   50.8670 C   0  0  0  0  0  0  0  0  0  0  0  0
   52.0190   32.0820   50.6030 C   0  0  0  0  0  0  0  0  0  0  0  0
   51.1350   31.3590   49.8290 C   0  0  0  0  0  0  0  0  0  0  0  0
   49.8530   31.7970   49.5930 C   0  0  0  0  0  0  0  0  0  0  0  0
   44.9310   35.0140   44.5480 C   0  0  0  0  0  0  0  0  0  0  0  0
   45.8740   34.8580   43.5310 C   0  0  0  0  0  0  0  0  0  0  0  0
   46.9150   33.9480   43.7100 C   0  0  0  0  0  0  0  0  0  0  0  0
   46.9460   33.2620   44.8790 N   0  0  0  0  0  0  0  0  0  0  0  0
   46.0280   33.4250   45.8470 C   0  0  0  0  0  0  0  0  0  0  0  0
   45.0390   34.3010   45.6580 N   0  0  0  0  0  0  0  0  0  0  0  0
   43.8710   35.9500   44.3480 N   0  0  0  0  0  0  0  0  0  0  0  0
   44.0400   32.6983   47.5654 H   0  0  0  0  0  0  0  0  0  0  0  0
   44.3768   31.3635   49.6372 H   0  0  0  0  0  0  0  0  0  0  0  0
   46.6785   30.5838   50.2617 H   0  0  0  0  0  0  0  0  0  0  0  0
   48.7194   29.3072   47.6698 H   0  0  0  0  0  0  0  0  0  0  0  0
   51.0235   28.4700   48.0621 H   0  0  0  0  0  0  0  0  0  0  0  0
   54.7151   30.0793   50.4543 H   0  0  0  0  0  0  0  0  0  0  0  0
   53.9951   32.2777   51.4894 H   0  0  0  0  0  0  0  0  0  0  0  0
   51.6728   33.0328   51.0343 H   0  0  0  0  0  0  0  0  0  0  0  0
   49.5303   32.7504   50.0367 H   0  0  0  0  0  0  0  0  0  0  0  0
   45.7971   35.4437   42.6030 H   0  0  0  0  0  0  0  0  0  0  0  0
   47.6797   33.7930   42.9346 H   0  0  0  0  0  0  0  0  0  0  0  0
   43.8178   36.4882   43.4714 H   0  0  0  0  0  0  0  0  0  0  0  0
   43.1598   36.0868   45.0803 H   0  0  0  0  0  0  0  0  0  0  0  0
  1  6  1  0
  1  2  2  0
  2  3  1  0
  3  4  2  0
  5  7  1  0
  5  4  1  0
  6  5  2  0
  7 16  2  0
  8  9  2  0
  8  7  1  0
  9 10  1  0
 10 11  2  0
 10 15  1  0
 11 12  1  0
 12 13  2  0
 14 13  1  0
 15 14  2  0
 16 15  1  0
 17 22  2  0
 18 19  2  0
 18 17  1  0
 19 20  1  0
 20 21  2  0
 21  1  1  0
 22 21  1  0
 23 17  1  0
  2 24  1  0
  3 25  1  0
  4 26  1  0
  8 27  1  0
  9 28  1  0
 12 29  1  0
 13 30  1  0
 14 31  1  0
 16 32  1  0
 18 33  1  0
 19 34  1  0
 23 35  1  0
 23 36  1  0
M  ISO  8  24  14  25  14  26  14  27  14  28  14  29  14  30  14  31  14
M  ISO  3  32  14  33  14  34  14
M  END
>  <minimizedAffinity>  (1) 
-6.86639118

>  <minimizedRMSD>  (1) 
0.940529048

$$$$
