
     RDKit          3D

 35 37  0  0  0  0  0  0  0  0999 V2000
   46.1530   32.6420   47.0780 C   0  0  0  0  0  0  0  0  0  0  0  0
   45.0910   32.3380   47.8620 C   0  0  0  0  0  0  0  0  0  0  0  0
   45.3010   31.6090   49.0030 C   0  0  0  0  0  0  0  0  0  0  0  0
   46.5840   31.1880   49.3480 C   0  0  0  0  0  0  0  0  0  0  0  0
   47.6460   31.5120   48.5320 C   0  0  0  0  0  0  0  0  0  0  0  0
   47.3750   32.2130   47.4540 N   0  0  0  0  0  0  0  0  0  0  0  0
   48.9720   31.1030   48.8450 N   0  0  0  0  0  0  0  0  0  0  0  0
   49.8810   31.8590   49.6550 C   0  0  0  0  0  0  0  0  0  0  0  0
   50.9170   31.0930   50.3760 C   0  0  0  0  0  0  0  0  0  0  0  0
   51.0900   29.7220   50.0650 N   0  0  0  0  0  0  0  0  0  0  0  0
   49.9330   29.0600   49.5310 C   0  0  0  0  0  0  0  0  0  0  0  0
   49.4520   29.8340   48.3130 C   0  0  0  0  0  0  0  0  0  0  0  0
   44.9420   35.0040   44.5470 C   0  0  0  0  0  0  0  0  0  0  0  0
   45.8810   34.8560   43.5220 C   0  0  0  0  0  0  0  0  0  0  0  0
   46.9330   33.9440   43.6990 C   0  0  0  0  0  0  0  0  0  0  0  0
   46.9650   33.2560   44.8740 N   0  0  0  0  0  0  0  0  0  0  0  0
   46.0590   33.4160   45.8330 C   0  0  0  0  0  0  0  0  0  0  0  0
   45.0630   34.2830   45.6590 N   0  0  0  0  0  0  0  0  0  0  0  0
   43.8810   35.9310   44.3560 N   0  0  0  0  0  0  0  0  0  0  0  0
   44.0789   32.6702   47.5878 H   0  0  0  0  0  0  0  0  0  0  0  0
   44.4502   31.3540   49.6519 H   0  0  0  0  0  0  0  0  0  0  0  0
   46.7475   30.6018   50.2643 H   0  0  0  0  0  0  0  0  0  0  0  0
   50.3934   32.5783   48.9992 H   0  0  0  0  0  0  0  0  0  0  0  0
   49.2597   32.3162   50.4391 H   0  0  0  0  0  0  0  0  0  0  0  0
   51.8789   31.5917   50.1864 H   0  0  0  0  0  0  0  0  0  0  0  0
   50.5675   31.0879   51.4190 H   0  0  0  0  0  0  0  0  0  0  0  0
   51.8475   29.6468   49.3711 H   0  0  0  0  0  0  0  0  0  0  0  0
   50.1957   28.0329   49.2377 H   0  0  0  0  0  0  0  0  0  0  0  0
   49.1379   29.0206   50.2901 H   0  0  0  0  0  0  0  0  0  0  0  0
   48.6387   29.2935   47.8066 H   0  0  0  0  0  0  0  0  0  0  0  0
   50.2483   29.9709   47.5666 H   0  0  0  0  0  0  0  0  0  0  0  0
   45.7970   35.4426   42.5953 H   0  0  0  0  0  0  0  0  0  0  0  0
   47.6978   33.7916   42.9232 H   0  0  0  0  0  0  0  0  0  0  0  0
   43.8205   36.4714   43.4812 H   0  0  0  0  0  0  0  0  0  0  0  0
   43.1729   36.0621   45.0924 H   0  0  0  0  0  0  0  0  0  0  0  0
  1  6  1  0
  1  2  2  0
  2  3  1  0
  3  4  2  0
  5  7  1  0
  5  4  1  0
  6  5  2  0
  7  8  1  0
  8  9  1  0
 10  9  1  0
 11 10  1  0
 12  7  1  0
 12 11  1  0
 13 18  2  0
 14 15  2  0
 14 13  1  0
 15 16  1  0
 16 17  2  0
 17  1  1  0
 18 17  1  0
 19 13  1  0
  2 20  1  0
  3 21  1  0
  4 22  1  0
  8 23  1  0
  8 24  1  0
  9 25  1  0
  9 26  1  0
 10 27  1  0
 11 28  1  0
 11 29  1  0
 12 30  1  0
 12 31  1  0
 14 32  1  0
 15 33  1  0
 19 34  1  0
 19 35  1  0
M  ISO  8  20  14  21  14  22  14  23  13  24  13  25  13  26  13  27   5
M  ISO  6  28  13  29  13  30  13  31  13  32  14  33  14
M  END
>  <minimizedAffinity>  (1) 
-6.43221569

>  <minimizedRMSD>  (1) 
0.613249302

$$$$
