
     RDKit          3D

 29 31  0  0  0  0  0  0  0  0999 V2000
   46.1380   32.6680   47.0740 C   0  0  0  0  0  0  0  0  0  0  0  0
   45.0740   32.3270   47.8430 C   0  0  0  0  0  0  0  0  0  0  0  0
   45.2470   31.5960   48.9930 C   0  0  0  0  0  0  0  0  0  0  0  0
   46.5240   31.2060   49.3680 C   0  0  0  0  0  0  0  0  0  0  0  0
   47.5880   31.5650   48.5720 C   0  0  0  0  0  0  0  0  0  0  0  0
   47.3690   32.2640   47.4830 N   0  0  0  0  0  0  0  0  0  0  0  0
   44.9340   35.0160   44.5480 C   0  0  0  0  0  0  0  0  0  0  0  0
   45.8860   34.8520   43.5190 C   0  0  0  0  0  0  0  0  0  0  0  0
   46.9280   33.9400   43.7030 C   0  0  0  0  0  0  0  0  0  0  0  0
   46.9390   33.2700   44.8840 N   0  0  0  0  0  0  0  0  0  0  0  0
   46.0300   33.4370   45.8490 C   0  0  0  0  0  0  0  0  0  0  0  0
   45.0250   34.3140   45.6790 N   0  0  0  0  0  0  0  0  0  0  0  0
   43.8780   35.9460   44.3520 N   0  0  0  0  0  0  0  0  0  0  0  0
   48.9430   31.1690   48.9420 C   0  0  0  0  0  0  0  0  0  0  0  0
   49.3790   29.8840   48.6900 C   0  0  0  0  0  0  0  0  0  0  0  0
   50.6700   29.4650   49.0290 C   0  0  0  0  0  0  0  0  0  0  0  0
   51.4730   30.3770   49.6170 N   0  0  0  0  0  0  0  0  0  0  0  0
   51.0600   31.6450   49.8730 C   0  0  0  0  0  0  0  0  0  0  0  0
   49.8230   31.9910   49.5300 N   0  0  0  0  0  0  0  0  0  0  0  0
   44.0628   32.6389   47.5428 H   0  0  0  0  0  0  0  0  0  0  0  0
   44.3796   31.3221   49.6116 H   0  0  0  0  0  0  0  0  0  0  0  0
   46.6837   30.6202   50.2852 H   0  0  0  0  0  0  0  0  0  0  0  0
   45.8087   35.4325   42.5879 H   0  0  0  0  0  0  0  0  0  0  0  0
   47.6968   33.7739   42.9340 H   0  0  0  0  0  0  0  0  0  0  0  0
   43.8196   36.4814   43.4740 H   0  0  0  0  0  0  0  0  0  0  0  0
   43.1708   36.0848   45.0879 H   0  0  0  0  0  0  0  0  0  0  0  0
   48.6932   29.1704   48.2099 H   0  0  0  0  0  0  0  0  0  0  0  0
   51.0146   28.4403   48.8259 H   0  0  0  0  0  0  0  0  0  0  0  0
   51.7338   32.3697   50.3534 H   0  0  0  0  0  0  0  0  0  0  0  0
  1  6  1  0
  1  2  2  0
  2  3  1  0
  3  4  2  0
  5 14  1  0
  5  4  1  0
  6  5  2  0
  7 12  2  0
  8  9  2  0
  8  7  1  0
  9 10  1  0
 10 11  2  0
 11  1  1  0
 12 11  1  0
 13  7  1  0
 14 19  1  0
 15 14  2  0
 15 16  1  0
 16 17  2  0
 17 18  1  0
 19 18  2  0
  2 20  1  0
  3 21  1  0
  4 22  1  0
  8 23  1  0
  9 24  1  0
 13 25  1  0
 13 26  1  0
 15 27  1  0
 16 28  1  0
 18 29  1  0
M  ISO  8  20  14  21  14  22  14  23  14  24  14  27  14  28  14  29  14
M  END
>  <minimizedAffinity>  (1) 
-6.13101673

>  <minimizedRMSD>  (1) 
1.13476574

$$$$
