
     RDKit          3D

 24 25  0  0  0  0  0  0  0  0999 V2000
   46.1160   32.6390   47.1100 C   0  0  0  0  0  0  0  0  0  0  0  0
   45.0350   32.2780   47.8460 C   0  0  0  0  0  0  0  0  0  0  0  0
   45.1860   31.5500   48.9980 C   0  0  0  0  0  0  0  0  0  0  0  0
   46.4760   31.1770   49.4150 C   0  0  0  0  0  0  0  0  0  0  0  0
   47.5490   31.5620   48.6410 C   0  0  0  0  0  0  0  0  0  0  0  0
   47.3390   32.2650   47.5390 N   0  0  0  0  0  0  0  0  0  0  0  0
   44.9540   34.9930   44.5690 C   0  0  0  0  0  0  0  0  0  0  0  0
   45.9110   34.8300   43.5520 C   0  0  0  0  0  0  0  0  0  0  0  0
   46.9530   33.9100   43.7450 C   0  0  0  0  0  0  0  0  0  0  0  0
   46.9520   33.2400   44.9200 N   0  0  0  0  0  0  0  0  0  0  0  0
   46.0270   33.4130   45.8760 C   0  0  0  0  0  0  0  0  0  0  0  0
   45.0400   34.2850   45.6930 N   0  0  0  0  0  0  0  0  0  0  0  0
   43.9030   35.9360   44.3490 N   0  0  0  0  0  0  0  0  0  0  0  0
   48.9510   31.1890   49.0430 C   0  0  0  0  0  0  0  0  0  0  0  0
   48.8370   30.4300   50.1910 F   0  0  0  0  0  0  0  0  0  0  0  0
   49.5320   30.4400   48.0620 F   0  0  0  0  0  0  0  0  0  0  0  0
   49.6990   32.3370   49.2760 F   0  0  0  0  0  0  0  0  0  0  0  0
   44.0279   32.5721   47.5154 H   0  0  0  0  0  0  0  0  0  0  0  0
   44.3058   31.2603   49.5907 H   0  0  0  0  0  0  0  0  0  0  0  0
   46.6247   30.5930   50.3352 H   0  0  0  0  0  0  0  0  0  0  0  0
   45.8442   35.4132   42.6217 H   0  0  0  0  0  0  0  0  0  0  0  0
   47.7281   33.7429   42.9825 H   0  0  0  0  0  0  0  0  0  0  0  0
   43.8647   36.4683   43.4680 H   0  0  0  0  0  0  0  0  0  0  0  0
   43.1838   36.0834   45.0714 H   0  0  0  0  0  0  0  0  0  0  0  0
  1  6  1  0
  1  2  2  0
  2  3  1  0
  3  4  2  0
  5 14  1  0
  5  4  1  0
  6  5  2  0
  7 12  2  0
  8  9  2  0
  8  7  1  0
  9 10  1  0
 10 11  2  0
 11  1  1  0
 12 11  1  0
 13  7  1  0
 14 17  1  0
 14 15  1  0
 16 14  1  0
  2 18  1  0
  3 19  1  0
  4 20  1  0
  8 21  1  0
  9 22  1  0
 13 23  1  0
 13 24  1  0
M  ISO  5  18  14  19  14  20  14  21  14  22  14
M  END
>  <minimizedAffinity>  (1) 
-6.01356649

>  <minimizedRMSD>  (1) 
0.6424402

$$$$
