
     RDKit          3D

 28 30  0  0  0  0  0  0  0  0999 V2000
   46.1260   32.6430   47.0920 C   0  0  0  0  0  0  0  0  0  0  0  0
   45.0600   32.3260   47.8640 C   0  0  0  0  0  0  0  0  0  0  0  0
   45.2190   31.5890   49.0040 C   0  0  0  0  0  0  0  0  0  0  0  0
   46.4820   31.1610   49.3770 C   0  0  0  0  0  0  0  0  0  0  0  0
   47.5420   31.5000   48.5720 C   0  0  0  0  0  0  0  0  0  0  0  0
   47.3410   32.2100   47.4850 N   0  0  0  0  0  0  0  0  0  0  0  0
   44.9420   35.0110   44.5650 C   0  0  0  0  0  0  0  0  0  0  0  0
   45.8840   34.8450   43.5470 C   0  0  0  0  0  0  0  0  0  0  0  0
   46.9180   33.9250   43.7320 C   0  0  0  0  0  0  0  0  0  0  0  0
   46.9390   33.2440   44.9030 N   0  0  0  0  0  0  0  0  0  0  0  0
   46.0170   33.4240   45.8700 C   0  0  0  0  0  0  0  0  0  0  0  0
   45.0200   34.3070   45.6980 N   0  0  0  0  0  0  0  0  0  0  0  0
   43.8980   35.9510   44.3580 N   0  0  0  0  0  0  0  0  0  0  0  0
   48.9650   31.1040   48.8530 C   0  0  0  0  0  0  0  0  0  0  0  0
   49.9140   31.7980   49.5960 C   0  0  0  0  0  0  0  0  0  0  0  0
   51.1350   31.1990   49.6870 C   0  0  0  0  0  0  0  0  0  0  0  0
   51.4240   30.0140   49.1050 C   0  0  0  0  0  0  0  0  0  0  0  0
   49.7850   29.6030   48.2780 S   0  0  0  0  0  0  0  0  0  0  0  0
   44.0555   32.6651   47.5707 H   0  0  0  0  0  0  0  0  0  0  0  0
   44.3459   31.3365   49.6236 H   0  0  0  0  0  0  0  0  0  0  0  0
   46.6319   30.5672   50.2908 H   0  0  0  0  0  0  0  0  0  0  0  0
   45.8126   35.4281   42.6170 H   0  0  0  0  0  0  0  0  0  0  0  0
   47.6834   33.7601   42.9594 H   0  0  0  0  0  0  0  0  0  0  0  0
   43.8529   36.4853   43.4785 H   0  0  0  0  0  0  0  0  0  0  0  0
   43.1858   36.0986   45.0873 H   0  0  0  0  0  0  0  0  0  0  0  0
   49.6946   32.7628   50.0766 H   0  0  0  0  0  0  0  0  0  0  0  0
   51.9241   31.7051   50.2625 H   0  0  0  0  0  0  0  0  0  0  0  0
   52.3644   29.4434   49.1128 H   0  0  0  0  0  0  0  0  0  0  0  0
  1  6  1  0
  1  2  2  0
  2  3  1  0
  3  4  2  0
  5 14  1  0
  5  4  1  0
  6  5  2  0
  7 12  2  0
  8  9  2  0
  8  7  1  0
  9 10  1  0
 10 11  2  0
 11  1  1  0
 12 11  1  0
 13  7  1  0
 14 15  2  0
 15 16  1  0
 17 16  2  0
 18 14  1  0
 18 17  1  0
  2 19  1  0
  3 20  1  0
  4 21  1  0
  8 22  1  0
  9 23  1  0
 13 24  1  0
 13 25  1  0
 15 26  1  0
 16 27  1  0
 17 28  1  0
M  ISO  8  19  14  20  14  21  14  22  14  23  14  26  14  27  14  28  14
M  END
>  <minimizedAffinity>  (1) 
-6.01152802

>  <minimizedRMSD>  (1) 
0.783917487

$$$$
