
     RDKit          3D

 22 23  0  0  0  0  0  0  0  0999 V2000
   44.9390   35.0250   44.5040 C   0  0  0  0  0  0  0  0  0  0  0  0
   45.8860   34.8870   43.4720 C   0  0  0  0  0  0  0  0  0  0  0  0
   46.9400   33.9840   43.6220 C   0  0  0  0  0  0  0  0  0  0  0  0
   46.9800   33.2840   44.7770 N   0  0  0  0  0  0  0  0  0  0  0  0
   46.0710   33.4220   45.7590 C   0  0  0  0  0  0  0  0  0  0  0  0
   45.0600   34.2910   45.6100 N   0  0  0  0  0  0  0  0  0  0  0  0
   43.8640   35.9430   44.3570 N   0  0  0  0  0  0  0  0  0  0  0  0
   46.1880   32.6260   46.9770 C   0  0  0  0  0  0  0  0  0  0  0  0
   45.2130   32.5670   47.9240 C   0  0  0  0  0  0  0  0  0  0  0  0
   45.4160   31.7870   49.0410 C   0  0  0  0  0  0  0  0  0  0  0  0
   46.5960   31.0740   49.1960 C   0  0  0  0  0  0  0  0  0  0  0  0
   47.5600   31.1610   48.2140 C   0  0  0  0  0  0  0  0  0  0  0  0
   47.3460   31.9150   47.1490 N   0  0  0  0  0  0  0  0  0  0  0  0
   49.0560   30.2270   48.4620 S   0  0  0  0  0  0  0  0  0  0  0  0
   45.7963   35.4863   42.5540 H   0  0  0  0  0  0  0  0  0  0  0  0
   47.7003   33.8490   42.8386 H   0  0  0  0  0  0  0  0  0  0  0  0
   43.7805   36.5050   43.4979 H   0  0  0  0  0  0  0  0  0  0  0  0
   43.1684   36.0463   45.1096 H   0  0  0  0  0  0  0  0  0  0  0  0
   44.2779   33.1329   47.7997 H   0  0  0  0  0  0  0  0  0  0  0  0
   44.6371   31.7290   49.8155 H   0  0  0  0  0  0  0  0  0  0  0  0
   46.7597   30.4500   50.0870 H   0  0  0  0  0  0  0  0  0  0  0  0
   49.2870   30.0828   49.8047 H   0  0  0  0  0  0  0  0  0  0  0  0
  1  6  2  0
  2  3  2  0
  2  1  1  0
  3  4  1  0
  4  5  2  0
  5  8  1  0
  6  5  1  0
  7  1  1  0
  8 13  1  0
  8  9  2  0
  9 10  1  0
 10 11  2  0
 12 14  1  0
 12 11  1  0
 13 12  2  0
  2 15  1  0
  3 16  1  0
  7 17  1  0
  7 18  1  0
  9 19  1  0
 10 20  1  0
 11 21  1  0
 14 22  1  0
M  ISO  6  15  14  16  14  19  14  20  14  21  14  22  11
M  END
>  <minimizedAffinity>  (1) 
-5.33778238

>  <minimizedRMSD>  (1) 
0.0653612688

$$$$
