
     RDKit          3D

 40 42  0  0  0  0  0  0  0  0999 V2000
   46.2070   32.6450   46.7980 C   0  0  0  0  0  0  0  0  0  0  0  0
   45.3390   32.6650   47.8410 C   0  0  0  0  0  0  0  0  0  0  0  0
   45.5680   31.8380   48.9180 C   0  0  0  0  0  0  0  0  0  0  0  0
   46.6720   30.9970   48.9340 C   0  0  0  0  0  0  0  0  0  0  0  0
   47.5360   31.0070   47.8480 C   0  0  0  0  0  0  0  0  0  0  0  0
   47.2770   31.8100   46.8470 N   0  0  0  0  0  0  0  0  0  0  0  0
   44.8800   35.0940   44.4340 C   0  0  0  0  0  0  0  0  0  0  0  0
   45.8280   35.0190   43.3840 C   0  0  0  0  0  0  0  0  0  0  0  0
   46.9220   34.1200   43.4990 C   0  0  0  0  0  0  0  0  0  0  0  0
   46.9520   33.4070   44.6250 N   0  0  0  0  0  0  0  0  0  0  0  0
   46.0590   33.4820   45.6080 C   0  0  0  0  0  0  0  0  0  0  0  0
   45.0200   34.3320   45.5060 N   0  0  0  0  0  0  0  0  0  0  0  0
   43.8000   35.9960   44.3020 N   0  0  0  0  0  0  0  0  0  0  0  0
   48.7090   30.1390   47.8230 C   0  0  0  0  0  0  0  0  0  0  0  0
   49.6980   30.2360   48.7080 C   0  0  0  0  0  0  0  0  0  0  0  0
   49.6930   31.2320   49.7910 C   0  0  0  0  0  0  0  0  0  0  0  0
   50.5340   29.4810   51.1860 C   0  0  0  0  0  0  0  0  0  0  0  0
   50.5250   30.8480   50.9610 C   0  0  0  0  0  0  0  0  0  0  0  0
   51.2200   31.7460   51.7440 C   0  0  0  0  0  0  0  0  0  0  0  0
   51.9610   31.2290   52.8130 C   0  0  0  0  0  0  0  0  0  0  0  0
   51.9580   29.8680   53.0210 C   0  0  0  0  0  0  0  0  0  0  0  0
   51.2710   28.9570   52.2480 C   0  0  0  0  0  0  0  0  0  0  0  0
   49.8430   28.5550   50.4110 O   0  0  0  0  0  0  0  0  0  0  0  0
   51.2870   27.5930   52.4840 O   0  0  0  0  0  0  0  0  0  0  0  0
   44.4648   33.3325   47.8263 H   0  0  0  0  0  0  0  0  0  0  0  0
   44.8723   31.8440   49.7701 H   0  0  0  0  0  0  0  0  0  0  0  0
   46.8588   30.3345   49.7920 H   0  0  0  0  0  0  0  0  0  0  0  0
   45.7183   35.6498   42.4896 H   0  0  0  0  0  0  0  0  0  0  0  0
   47.6883   34.0196   42.7162 H   0  0  0  0  0  0  0  0  0  0  0  0
   43.7152   36.5777   43.4562 H   0  0  0  0  0  0  0  0  0  0  0  0
   43.0977   36.0717   45.0516 H   0  0  0  0  0  0  0  0  0  0  0  0
   48.7786   29.3712   47.0384 H   0  0  0  0  0  0  0  0  0  0  0  0
   50.5509   29.5460   48.6269 H   0  0  0  0  0  0  0  0  0  0  0  0
   50.0753   32.1824   49.3902 H   0  0  0  0  0  0  0  0  0  0  0  0
   48.6556   31.3132   50.1476 H   0  0  0  0  0  0  0  0  0  0  0  0
   51.1930   32.8259   51.5365 H   0  0  0  0  0  0  0  0  0  0  0  0
   52.5340   31.8964   53.4734 H   0  0  0  0  0  0  0  0  0  0  0  0
   52.5465   29.4796   53.8653 H   0  0  0  0  0  0  0  0  0  0  0  0
   49.3002   28.8604   49.6414 H   0  0  0  0  0  0  0  0  0  0  0  0
   51.8121   27.2275   53.2395 H   0  0  0  0  0  0  0  0  0  0  0  0
  1  6  1  0
  1  2  2  0
  2  3  1  0
  3  4  2  0
  5  4  1  0
  6  5  2  0
  7 12  2  0
  8  9  2  0
  8  7  1  0
  9 10  1  0
 10 11  2  0
 11  1  1  0
 12 11  1  0
 13  7  1  0
 14  5  1  0
 14 15  2  0
 15 16  1  0
 16 18  1  0
 17 22  2  0
 18 17  1  0
 18 19  2  0
 19 20  1  0
 20 21  2  0
 22 24  1  0
 22 21  1  0
 23 17  1  0
  2 25  1  0
  3 26  1  0
  4 27  1  0
  8 28  1  0
  9 29  1  0
 13 30  1  0
 13 31  1  0
 14 32  1  0
 15 33  1  0
 16 34  1  0
 16 35  1  0
 19 36  1  0
 20 37  1  0
 21 38  1  0
 23 39  1  0
 24 40  1  0
M  ISO  8  25  14  26  14  27  14  28  14  29  14  34   8  35   8  36  14
M  ISO  4  37  14  38  14  39   3  40   3
M  END
>  <minimizedAffinity>  (1) 
-7.23587179

>  <minimizedRMSD>  (1) 
0.856755316

$$$$
