
     RDKit          3D

 29 30  0  0  0  0  0  0  0  0999 V2000
   46.1670   32.5600   46.9980 C   0  0  0  0  0  0  0  0  0  0  0  0
   45.2320   32.5790   47.9880 C   0  0  0  0  0  0  0  0  0  0  0  0
   45.4200   31.7640   49.0860 C   0  0  0  0  0  0  0  0  0  0  0  0
   46.5390   30.9450   49.1740 C   0  0  0  0  0  0  0  0  0  0  0  0
   47.4830   30.9560   48.1260 C   0  0  0  0  0  0  0  0  0  0  0  0
   47.2670   31.7430   47.1030 N   0  0  0  0  0  0  0  0  0  0  0  0
   44.9640   34.9860   44.5610 C   0  0  0  0  0  0  0  0  0  0  0  0
   45.9050   34.8640   43.5240 C   0  0  0  0  0  0  0  0  0  0  0  0
   46.9710   33.9360   43.6660 C   0  0  0  0  0  0  0  0  0  0  0  0
   46.9810   33.2400   44.8210 N   0  0  0  0  0  0  0  0  0  0  0  0
   46.0860   33.3740   45.7790 C   0  0  0  0  0  0  0  0  0  0  0  0
   45.0930   34.2380   45.6450 N   0  0  0  0  0  0  0  0  0  0  0  0
   43.9020   35.9180   44.3750 N   0  0  0  0  0  0  0  0  0  0  0  0
   48.6670   30.1150   48.1800 C   0  0  0  0  0  0  0  0  0  0  0  0
   49.7650   30.4690   48.8470 C   0  0  0  0  0  0  0  0  0  0  0  0
   49.8720   31.7410   49.5850 C   0  0  0  0  0  0  0  0  0  0  0  0
   51.2110   32.1550   49.6040 O   0  0  0  0  0  0  0  0  0  0  0  0
   44.3475   33.2288   47.9143 H   0  0  0  0  0  0  0  0  0  0  0  0
   44.6779   31.7629   49.8980 H   0  0  0  0  0  0  0  0  0  0  0  0
   46.6868   30.2962   50.0499 H   0  0  0  0  0  0  0  0  0  0  0  0
   45.8172   35.4782   42.6157 H   0  0  0  0  0  0  0  0  0  0  0  0
   47.7354   33.7949   42.8877 H   0  0  0  0  0  0  0  0  0  0  0  0
   43.8510   36.4748   43.5099 H   0  0  0  0  0  0  0  0  0  0  0  0
   43.1855   36.0348   45.1056 H   0  0  0  0  0  0  0  0  0  0  0  0
   48.6564   29.1507   47.6508 H   0  0  0  0  0  0  0  0  0  0  0  0
   50.6262   29.7847   48.8470 H   0  0  0  0  0  0  0  0  0  0  0  0
   49.2578   32.5066   49.0884 H   0  0  0  0  0  0  0  0  0  0  0  0
   49.5156   31.5996   50.6160 H   0  0  0  0  0  0  0  0  0  0  0  0
   51.5142   32.2487   50.5418 H   0  0  0  0  0  0  0  0  0  0  0  0
  1  6  1  0
  1  2  2  0
  2  3  1  0
  3  4  2  0
  5 14  1  0
  5  4  1  0
  6  5  2  0
  7 12  2  0
  8  9  2  0
  8  7  1  0
  9 10  1  0
 10 11  2  0
 11  1  1  0
 12 11  1  0
 13  7  1  0
 14 15  2  0
 15 16  1  0
 16 17  1  0
  2 18  1  0
  3 19  1  0
  4 20  1  0
  8 21  1  0
  9 22  1  0
 13 23  1  0
 13 24  1  0
 14 25  1  0
 15 26  1  0
 16 27  1  0
 16 28  1  0
 17 29  1  0
M  ISO  8  18  14  19  14  20  14  21  14  22  14  27   8  28   8  29   3
M  END
>  <minimizedAffinity>  (1) 
-5.57050228

>  <minimizedRMSD>  (1) 
0.173988

$$$$
