
     RDKit          3D

 24 26  0  0  0  0  0  0  0  0999 V2000
   45.5570   34.0340   43.3990 C   0  0  0  0  0  0  0  0  0  0  0  0
   46.9040   34.1420   42.9710 C   0  0  0  0  0  0  0  0  0  0  0  0
   47.7540   33.0380   43.0980 C   0  0  0  0  0  0  0  0  0  0  0  0
   47.2100   31.9120   43.6380 N   0  0  0  0  0  0  0  0  0  0  0  0
   45.9140   31.8400   44.0390 C   0  0  0  0  0  0  0  0  0  0  0  0
   45.1070   32.8920   43.9170 N   0  0  0  0  0  0  0  0  0  0  0  0
   44.6860   35.2240   43.2570 C   0  0  0  0  0  0  0  0  0  0  0  0
   44.5810   36.0520   44.5720 C   0  0  0  0  0  0  0  0  0  0  0  0
   45.1790   36.5820   43.3200 C   0  0  0  0  0  0  0  0  0  0  0  0
   49.1490   33.0780   42.6790 C   0  0  0  0  0  0  0  0  0  0  0  0
   49.8140   32.0170   42.1030 C   0  0  0  0  0  0  0  0  0  0  0  0
   51.0910   32.5480   41.8910 C   0  0  0  0  0  0  0  0  0  0  0  0
   51.1740   33.8230   42.3090 N   0  0  0  0  0  0  0  0  0  0  0  0
   49.9750   34.1240   42.7850 N   0  0  0  0  0  0  0  0  0  0  0  0
   47.2772   35.0842   42.5434 H   0  0  0  0  0  0  0  0  0  0  0  0
   45.5277   30.9039   44.4685 H   0  0  0  0  0  0  0  0  0  0  0  0
   44.0406   34.7239   42.5199 H   0  0  0  0  0  0  0  0  0  0  0  0
   43.6060   36.4193   44.9249 H   0  0  0  0  0  0  0  0  0  0  0  0
   44.8996   35.9302   45.6178 H   0  0  0  0  0  0  0  0  0  0  0  0
   46.2630   36.7635   43.2763 H   0  0  0  0  0  0  0  0  0  0  0  0
   44.9867   37.4811   42.7161 H   0  0  0  0  0  0  0  0  0  0  0  0
   49.4371   31.0103   41.8697 H   0  0  0  0  0  0  0  0  0  0  0  0
   51.9244   31.9909   41.4381 H   0  0  0  0  0  0  0  0  0  0  0  0
   51.9990   34.4383   42.2677 H   0  0  0  0  0  0  0  0  0  0  0  0
  1  6  2  0
  2  3  2  0
  2  1  1  0
  3  4  1  0
  4  5  2  0
  6  5  1  0
  7  9  1  0
  7  1  1  0
  7  8  1  0
  9  8  1  0
 10 14  2  0
 10  3  1  0
 11 10  1  0
 12 11  2  0
 12 13  1  0
 13 14  1  0
  2 15  1  0
  5 16  1  0
  7 17  1  0
  8 18  1  0
  8 19  1  0
  9 20  1  0
  9 21  1  0
 11 22  1  0
 12 23  1  0
 13 24  1  0
M  ISO  8  15  14  16  14  17  13  18  13  19  13  20  13  21  13  22  14
M  ISO  2  23  14  24   9
M  END
>  <minimizedAffinity>  (1) 
-4.16373539

>  <minimizedRMSD>  (1) 
2.12939095

$$$$
