
     RDKit          3D

 21 22  0  0  0  0  0  0  0  0999 V2000
   45.3520   34.5020   44.4110 C   0  0  0  0  0  0  0  0  0  0  0  0
   46.3010   33.9230   43.5420 C   0  0  0  0  0  0  0  0  0  0  0  0
   47.1980   32.9630   44.0600 C   0  0  0  0  0  0  0  0  0  0  0  0
   47.0710   32.6650   45.3940 N   0  0  0  0  0  0  0  0  0  0  0  0
   46.1500   33.2450   46.1830 C   0  0  0  0  0  0  0  0  0  0  0  0
   45.2990   34.1540   45.6960 N   0  0  0  0  0  0  0  0  0  0  0  0
   49.0630   33.3320   42.6880 C   0  0  0  0  0  0  0  0  0  0  0  0
   48.9940   34.5720   42.8860 O   0  0  0  0  0  0  0  0  0  0  0  0
   48.1780   32.3400   43.2410 N   0  0  0  0  0  0  0  0  0  0  0  0
   44.4340   35.5060   43.8260 C   0  0  0  0  0  0  0  0  0  0  0  0
   45.1580   36.7880   43.3460 C   0  0  0  0  0  0  0  0  0  0  0  0
   44.4360   35.8760   42.4270 C   0  0  0  0  0  0  0  0  0  0  0  0
   46.3414   34.2137   42.4819 H   0  0  0  0  0  0  0  0  0  0  0  0
   46.0957   32.9674   47.2460 H   0  0  0  0  0  0  0  0  0  0  0  0
   49.8715   32.9733   42.0341 H   0  0  0  0  0  0  0  0  0  0  0  0
   48.2454   31.3268   43.0682 H   0  0  0  0  0  0  0  0  0  0  0  0
   43.6128   35.2001   44.4909 H   0  0  0  0  0  0  0  0  0  0  0  0
   44.7489   37.7815   43.5818 H   0  0  0  0  0  0  0  0  0  0  0  0
   46.1746   37.2018   43.4193 H   0  0  0  0  0  0  0  0  0  0  0  0
   43.5004   36.2137   41.9573 H   0  0  0  0  0  0  0  0  0  0  0  0
   44.7255   35.3472   41.5069 H   0  0  0  0  0  0  0  0  0  0  0  0
  1  6  2  0
  2  3  2  0
  2  1  1  0
  3  4  1  0
  4  5  2  0
  6  5  1  0
  7  8  2  0
  7  9  1  0
  9  3  1  0
 10  1  1  0
 11 10  1  0
 12 11  1  0
 12 10  1  0
  2 13  1  0
  5 14  1  0
  7 15  1  0
  9 16  1  0
 10 17  1  0
 11 18  1  0
 11 19  1  0
 12 20  1  0
 12 21  1  0
M  ISO  8  13  14  14  14  15   6  17  13  18  13  19  13  20  13  21  13
M  END
>  <minimizedAffinity>  (1) 
-3.79155087

>  <minimizedRMSD>  (1) 
0.806775928

$$$$
