
     RDKit          3D

 20 21  0  0  0  0  0  0  0  0999 V2000
   45.4900   33.9630   44.5710 C   0  0  0  0  0  0  0  0  0  0  0  0
   46.3480   33.1450   43.8110 C   0  0  0  0  0  0  0  0  0  0  0  0
   47.1550   32.1970   44.4740 C   0  0  0  0  0  0  0  0  0  0  0  0
   47.0410   32.1430   45.8370 N   0  0  0  0  0  0  0  0  0  0  0  0
   46.1980   32.9540   46.5260 C   0  0  0  0  0  0  0  0  0  0  0  0
   45.4340   33.8510   45.9000 N   0  0  0  0  0  0  0  0  0  0  0  0
   44.6730   34.9370   43.8160 C   0  0  0  0  0  0  0  0  0  0  0  0
   44.7580   36.3740   44.3990 C   0  0  0  0  0  0  0  0  0  0  0  0
   45.2280   36.0230   43.0350 C   0  0  0  0  0  0  0  0  0  0  0  0
   48.0880   31.2900   43.7790 C   0  0  0  0  0  0  0  0  0  0  0  0
   46.3883   33.2439   42.7162 H   0  0  0  0  0  0  0  0  0  0  0  0
   46.1438   32.8700   47.6214 H   0  0  0  0  0  0  0  0  0  0  0  0
   43.9272   34.1717   43.5549 H   0  0  0  0  0  0  0  0  0  0  0  0
   43.8472   36.9748   44.5384 H   0  0  0  0  0  0  0  0  0  0  0  0
   45.1917   36.8455   45.2932 H   0  0  0  0  0  0  0  0  0  0  0  0
   46.3062   36.0339   42.8172 H   0  0  0  0  0  0  0  0  0  0  0  0
   45.0054   36.4228   42.0347 H   0  0  0  0  0  0  0  0  0  0  0  0
   48.6702   30.7240   44.5210 H   0  0  0  0  0  0  0  0  0  0  0  0
   47.5187   30.5909   43.1489 H   0  0  0  0  0  0  0  0  0  0  0  0
   48.7708   31.8788   43.1489 H   0  0  0  0  0  0  0  0  0  0  0  0
  1  6  2  0
  2  3  2  0
  2  1  1  0
  3  4  1  0
  4  5  2  0
  6  5  1  0
  7  8  1  0
  7  1  1  0
  9  7  1  0
  9  8  1  0
 10  3  1  0
  2 11  1  0
  5 12  1  0
  7 13  1  0
  8 14  1  0
  8 15  1  0
  9 16  1  0
  9 17  1  0
 10 18  1  0
 10 19  1  0
 10 20  1  0
M  ISO  8  11  14  12  14  13  13  14  13  15  13  16  13  17  13  18   8
M  ISO  2  19   8  20   8
M  END
>  <minimizedAffinity>  (1) 
-3.15916872

>  <minimizedRMSD>  (1) 
0.205330953

$$$$
