
     RDKit          3D

 29 31  0  0  0  0  0  0  0  0999 V2000
   44.2620   34.5440   41.3340 C   0  0  0  0  0  0  0  0  0  0  0  0
   43.0820   35.1960   40.9230 C   0  0  0  0  0  0  0  0  0  0  0  0
   42.5670   34.8900   39.6660 C   0  0  0  0  0  0  0  0  0  0  0  0
   43.2460   33.9640   38.9000 N   0  0  0  0  0  0  0  0  0  0  0  0
   44.3740   33.3730   39.3570 C   0  0  0  0  0  0  0  0  0  0  0  0
   44.8770   33.6520   40.5480 N   0  0  0  0  0  0  0  0  0  0  0  0
   44.7980   34.8850   42.6790 C   0  0  0  0  0  0  0  0  0  0  0  0
   46.2660   35.3810   42.6350 C   0  0  0  0  0  0  0  0  0  0  0  0
   45.1340   36.2240   43.0720 C   0  0  0  0  0  0  0  0  0  0  0  0
   41.3220   35.5480   39.1910 C   0  0  0  0  0  0  0  0  0  0  0  0
   40.3720   35.8340   40.3400 C   0  0  0  0  0  0  0  0  0  0  0  0
   39.5520   34.5970   40.5310 C   0  0  0  0  0  0  0  0  0  0  0  0
   39.9010   33.6570   41.4100 N   0  0  0  0  0  0  0  0  0  0  0  0
   39.0300   32.6300   41.4260 C   0  0  0  0  0  0  0  0  0  0  0  0
   38.1060   32.9710   40.5070 N   0  0  0  0  0  0  0  0  0  0  0  0
   38.4020   34.1380   39.9650 N   0  0  0  0  0  0  0  0  0  0  0  0
   42.5821   35.9259   41.5767 H   0  0  0  0  0  0  0  0  0  0  0  0
   44.8879   32.6388   38.7192 H   0  0  0  0  0  0  0  0  0  0  0  0
   44.1830   34.1181   43.1726 H   0  0  0  0  0  0  0  0  0  0  0  0
   47.0030   35.0125   43.3637 H   0  0  0  0  0  0  0  0  0  0  0  0
   47.0638   35.4455   41.8804 H   0  0  0  0  0  0  0  0  0  0  0  0
   44.8151   37.0660   42.4400 H   0  0  0  0  0  0  0  0  0  0  0  0
   44.9413   36.8110   43.9821 H   0  0  0  0  0  0  0  0  0  0  0  0
   41.5840   36.4963   38.6990 H   0  0  0  0  0  0  0  0  0  0  0  0
   40.8188   34.8685   38.4874 H   0  0  0  0  0  0  0  0  0  0  0  0
   40.9393   36.0590   41.2552 H   0  0  0  0  0  0  0  0  0  0  0  0
   39.7350   36.7040   40.1224 H   0  0  0  0  0  0  0  0  0  0  0  0
   39.0650   31.7223   42.0463 H   0  0  0  0  0  0  0  0  0  0  0  0
   37.2838   32.4012   40.2615 H   0  0  0  0  0  0  0  0  0  0  0  0
  1  7  1  0
  2  1  2  0
  3  2  1  0
  4  5  1  0
  4  3  2  0
  5  6  2  0
  6  1  1  0
  7  9  1  0
  8  7  1  0
  8  9  1  0
 10  3  1  0
 10 11  1  0
 11 12  1  0
 12 13  1  0
 13 14  2  0
 15 14  1  0
 16 15  1  0
 16 12  2  0
  2 17  1  0
  5 18  1  0
  7 19  1  0
  8 20  1  0
  8 21  1  0
  9 22  1  0
  9 23  1  0
 10 24  1  0
 10 25  1  0
 11 26  1  0
 11 27  1  0
 14 28  1  0
 15 29  1  0
M  ISO  8  17  14  18  14  19  13  20  13  21  13  22  13  23  13  24   8
M  ISO  5  25   8  26   8  27   8  28  14  29   9
M  END
>  <minimizedAffinity>  (1) 
-4.83439445

>  <minimizedRMSD>  (1) 
1.26344442

$$$$
