
     RDKit          3D

 20 21  0  0  1  0  0  0  0  0999 V2000
   44.6610   35.0220   45.6930 C   0  0  0  0  0  0  0  0  0  0  0  0
   44.9410   35.2520   44.3170 C   0  0  0  0  0  0  0  0  0  0  0  0
   45.9320   34.4420   43.7070 C   0  0  0  0  0  0  0  0  0  0  0  0
   46.5610   33.4960   44.4490 N   0  0  0  0  0  0  0  0  0  0  0  0
   46.2610   33.3110   45.7580 C   0  0  0  0  0  0  0  0  0  0  0  0
   45.3220   34.0670   46.3700 N   0  0  0  0  0  0  0  0  0  0  0  0
   46.9610   32.2420   46.5130 C   0  0  1  0  0  0  0  0  0  0  0  0
   47.3820   32.4280   47.9170 C   0  0  0  0  0  0  0  0  0  0  0  0
   46.2410   31.4690   47.5550 C   0  0  1  0  0  0  0  0  0  0  0  0
   44.9200   31.8990   48.0900 C   0  0  0  0  0  0  0  0  0  0  0  0
   43.8998   35.6287   46.2054 H   0  0  0  0  0  0  0  0  0  0  0  0
   44.4089   36.0287   43.7482 H   0  0  0  0  0  0  0  0  0  0  0  0
   46.1876   34.5787   42.6459 H   0  0  0  0  0  0  0  0  0  0  0  0
   47.5022   31.9801   45.5918 H   0  0  0  0  0  0  0  0  0  0  0  0
   48.3487   32.0319   48.2613 H   0  0  0  0  0  0  0  0  0  0  0  0
   47.4981   33.2881   48.5929 H   0  0  0  0  0  0  0  0  0  0  0  0
   45.9868   30.4017   47.6345 H   0  0  0  0  0  0  0  0  0  0  0  0
   44.9490   31.8895   49.1896 H   0  0  0  0  0  0  0  0  0  0  0  0
   44.6954   32.9166   47.7379 H   0  0  0  0  0  0  0  0  0  0  0  0
   44.1394   31.2086   47.7379 H   0  0  0  0  0  0  0  0  0  0  0  0
  1  6  2  0
  2  1  1  0
  3  2  2  0
  3  4  1  0
  4  5  2  0
  5  6  1  0
  5  7  1  0
  7  9  1  0
  7  8  1  0
  9  8  1  0
  9 10  1  0
  1 11  1  0
  2 12  1  0
  3 13  1  0
  7 14  1  6
  8 15  1  0
  8 16  1  0
  9 17  1  6
 10 18  1  0
 10 19  1  0
 10 20  1  0
M  ISO  8  11  14  12  14  13  14  14  13  15  13  16  13  17  13  18   8
M  ISO  2  19   8  20   8
M  END
>  <minimizedAffinity>  (1) 
-3.47542882

>  <minimizedRMSD>  (1) 
1.16057968

$$$$
