
     RDKit          3D

 37 39  0  0  0  0  0  0  0  0999 V2000
   40.8990   35.7960   39.4140 C   0  0  0  0  0  0  0  0  0  0  0  0
   43.8830   34.7240   41.4620 C   0  0  0  0  0  0  0  0  0  0  0  0
   42.7090   35.3880   41.0770 C   0  0  0  0  0  0  0  0  0  0  0  0
   42.1450   35.1170   39.8430 C   0  0  0  0  0  0  0  0  0  0  0  0
   42.7800   34.1980   39.0570 N   0  0  0  0  0  0  0  0  0  0  0  0
   43.9260   33.5720   39.4720 C   0  0  0  0  0  0  0  0  0  0  0  0
   44.4580   33.8370   40.6520 N   0  0  0  0  0  0  0  0  0  0  0  0
   44.4780   35.0400   42.7920 C   0  0  0  0  0  0  0  0  0  0  0  0
   46.0180   35.3110   42.6870 C   0  0  0  0  0  0  0  0  0  0  0  0
   45.0330   36.2980   43.1430 C   0  0  0  0  0  0  0  0  0  0  0  0
   39.7700   35.5150   40.3630 C   0  0  0  0  0  0  0  0  0  0  0  0
   39.1450   33.1400   40.7520 C   0  0  0  0  0  0  0  0  0  0  0  0
   39.8010   33.1010   41.8400 O   0  0  0  0  0  0  0  0  0  0  0  0
   39.0010   34.3360   40.0130 N   0  0  0  0  0  0  0  0  0  0  0  0
   39.3950   31.8500   38.1540 F   0  0  0  0  0  0  0  0  0  0  0  0
   38.6620   31.2480   39.1140 C   0  0  0  0  0  0  0  0  0  0  0  0
   38.5600   31.8690   40.3370 C   0  0  0  0  0  0  0  0  0  0  0  0
   37.7880   31.1360   41.2150 C   0  0  0  0  0  0  0  0  0  0  0  0
   37.1840   29.9340   40.9310 C   0  0  0  0  0  0  0  0  0  0  0  0
   37.3360   29.3810   39.6800 C   0  0  0  0  0  0  0  0  0  0  0  0
   38.0890   30.0550   38.7630 C   0  0  0  0  0  0  0  0  0  0  0  0
   41.0761   36.8811   39.3791 H   0  0  0  0  0  0  0  0  0  0  0  0
   40.6204   35.4149   38.4205 H   0  0  0  0  0  0  0  0  0  0  0  0
   42.2399   36.1193   41.7516 H   0  0  0  0  0  0  0  0  0  0  0  0
   44.4107   32.8372   38.8123 H   0  0  0  0  0  0  0  0  0  0  0  0
   43.7510   34.4079   43.3229 H   0  0  0  0  0  0  0  0  0  0  0  0
   46.7194   34.8482   43.3968 H   0  0  0  0  0  0  0  0  0  0  0  0
   46.7921   35.2507   41.9078 H   0  0  0  0  0  0  0  0  0  0  0  0
   44.8195   37.1709   42.5086 H   0  0  0  0  0  0  0  0  0  0  0  0
   44.9639   36.9120   44.0531 H   0  0  0  0  0  0  0  0  0  0  0  0
   40.1889   35.3714   41.3699 H   0  0  0  0  0  0  0  0  0  0  0  0
   39.0851   36.3745   40.3152 H   0  0  0  0  0  0  0  0  0  0  0  0
   38.3449   34.3707   39.2197 H   0  0  0  0  0  0  0  0  0  0  0  0
   37.6440   31.5471   42.2251 H   0  0  0  0  0  0  0  0  0  0  0  0
   36.5849   29.4192   41.6965 H   0  0  0  0  0  0  0  0  0  0  0  0
   36.8630   28.4210   39.4259 H   0  0  0  0  0  0  0  0  0  0  0  0
   38.2341   29.6444   37.7529 H   0  0  0  0  0  0  0  0  0  0  0  0
  1  4  1  0
  1 11  1  0
  2  8  1  0
  3  2  2  0
  4  3  1  0
  5  6  1  0
  5  4  2  0
  6  7  2  0
  7  2  1  0
  8 10  1  0
  9  8  1  0
  9 10  1  0
 12 13  2  0
 14 11  1  0
 14 12  1  0
 15 16  1  0
 16 17  2  0
 17 12  1  0
 17 18  1  0
 19 18  2  0
 20 19  1  0
 21 16  1  0
 21 20  2  0
  1 22  1  0
  1 23  1  0
  3 24  1  0
  6 25  1  0
  8 26  1  0
  9 27  1  0
  9 28  1  0
 10 29  1  0
 10 30  1  0
 11 31  1  0
 11 32  1  0
 14 33  1  0
 18 34  1  0
 19 35  1  0
 20 36  1  0
 21 37  1  0
M  ISO  8  22   8  23   8  24  14  25  14  26  13  27  13  28  13  29  13
M  ISO  7  30  13  31   8  32   8  34  14  35  14  36  14  37  14
M  END
>  <minimizedAffinity>  (1) 
-5.43898201

>  <minimizedRMSD>  (1) 
0.764059544

$$$$
