
     RDKit          3D

 37 39  0  0  0  0  0  0  0  0999 V2000
   40.9430   35.8200   39.3910 C   0  0  0  0  0  0  0  0  0  0  0  0
   43.8940   34.6970   41.4700 C   0  0  0  0  0  0  0  0  0  0  0  0
   42.7300   35.3930   41.0760 C   0  0  0  0  0  0  0  0  0  0  0  0
   42.1680   35.1180   39.8390 C   0  0  0  0  0  0  0  0  0  0  0  0
   42.7860   34.1750   39.0640 N   0  0  0  0  0  0  0  0  0  0  0  0
   43.9130   33.5280   39.4910 C   0  0  0  0  0  0  0  0  0  0  0  0
   44.4550   33.7880   40.6770 N   0  0  0  0  0  0  0  0  0  0  0  0
   44.4980   35.0010   42.7910 C   0  0  0  0  0  0  0  0  0  0  0  0
   46.0290   35.3220   42.6790 C   0  0  0  0  0  0  0  0  0  0  0  0
   45.0170   36.2600   43.1810 C   0  0  0  0  0  0  0  0  0  0  0  0
   39.7680   35.4520   40.2740 C   0  0  0  0  0  0  0  0  0  0  0  0
   39.1710   33.1320   40.7150 C   0  0  0  0  0  0  0  0  0  0  0  0
   39.7270   33.1040   41.8500 O   0  0  0  0  0  0  0  0  0  0  0  0
   39.1020   34.2430   39.8420 N   0  0  0  0  0  0  0  0  0  0  0  0
   38.5620   31.8630   40.3310 C   0  0  0  0  0  0  0  0  0  0  0  0
   37.8040   31.1420   41.2320 C   0  0  0  0  0  0  0  0  0  0  0  0
   37.1840   29.9180   40.9460 C   0  0  0  0  0  0  0  0  0  0  0  0
   37.3410   29.3950   39.6810 C   0  0  0  0  0  0  0  0  0  0  0  0
   38.0890   30.0810   38.7490 C   0  0  0  0  0  0  0  0  0  0  0  0
   38.6760   31.2830   39.0840 C   0  0  0  0  0  0  0  0  0  0  0  0
   41.1087   36.9062   39.4429 H   0  0  0  0  0  0  0  0  0  0  0  0
   40.7188   35.5198   38.3568 H   0  0  0  0  0  0  0  0  0  0  0  0
   42.2760   36.1424   41.7410 H   0  0  0  0  0  0  0  0  0  0  0  0
   44.3812   32.7760   38.8388 H   0  0  0  0  0  0  0  0  0  0  0  0
   43.7938   34.3322   43.3075 H   0  0  0  0  0  0  0  0  0  0  0  0
   46.7526   34.8561   43.3641 H   0  0  0  0  0  0  0  0  0  0  0  0
   46.7959   35.3139   41.8904 H   0  0  0  0  0  0  0  0  0  0  0  0
   44.7689   37.1480   42.5810 H   0  0  0  0  0  0  0  0  0  0  0  0
   44.9390   36.8379   44.1137 H   0  0  0  0  0  0  0  0  0  0  0  0
   40.1324   35.3051   41.3014 H   0  0  0  0  0  0  0  0  0  0  0  0
   39.0380   36.2727   40.2146 H   0  0  0  0  0  0  0  0  0  0  0  0
   38.6020   34.1934   38.9429 H   0  0  0  0  0  0  0  0  0  0  0  0
   37.6781   31.5564   42.2431 H   0  0  0  0  0  0  0  0  0  0  0  0
   36.5905   29.3913   41.7078 H   0  0  0  0  0  0  0  0  0  0  0  0
   36.8721   28.4357   39.4167 H   0  0  0  0  0  0  0  0  0  0  0  0
   38.2180   29.6695   37.7370 H   0  0  0  0  0  0  0  0  0  0  0  0
   39.2658   31.8068   38.3173 H   0  0  0  0  0  0  0  0  0  0  0  0
  1  4  1  0
  1 11  1  0
  2  8  1  0
  3  2  2  0
  4  3  1  0
  5  6  1  0
  5  4  2  0
  6  7  2  0
  7  2  1  0
  8 10  1  0
  9  8  1  0
  9 10  1  0
 12 13  2  0
 14 11  1  0
 14 12  1  0
 15 12  1  0
 15 16  2  0
 17 16  1  0
 18 17  2  0
 19 20  2  0
 19 18  1  0
 20 15  1  0
  1 21  1  0
  1 22  1  0
  3 23  1  0
  6 24  1  0
  8 25  1  0
  9 26  1  0
  9 27  1  0
 10 28  1  0
 10 29  1  0
 11 30  1  0
 11 31  1  0
 14 32  1  0
 16 33  1  0
 17 34  1  0
 18 35  1  0
 19 36  1  0
 20 37  1  0
M  ISO  8  21   8  22   8  23  14  24  14  25  13  26  13  27  13  28  13
M  ISO  8  29  13  30   8  31   8  33  14  34  14  35  14  36  14  37  14
M  END
>  <minimizedAffinity>  (1) 
-5.31097841

>  <minimizedRMSD>  (1) 
0.633404016

$$$$
