
     RDKit          3D

 29 30  0  0  0  0  0  0  0  0999 V2000
   44.1030   34.5550   41.2940 C   0  0  0  0  0  0  0  0  0  0  0  0
   42.9560   35.2160   40.8030 C   0  0  0  0  0  0  0  0  0  0  0  0
   42.4920   34.9100   39.5340 C   0  0  0  0  0  0  0  0  0  0  0  0
   43.1910   33.9680   38.8220 N   0  0  0  0  0  0  0  0  0  0  0  0
   44.2920   33.3580   39.3410 C   0  0  0  0  0  0  0  0  0  0  0  0
   44.7410   33.6480   40.5600 N   0  0  0  0  0  0  0  0  0  0  0  0
   44.5990   34.8960   42.6520 C   0  0  0  0  0  0  0  0  0  0  0  0
   46.1120   35.3110   42.6360 C   0  0  0  0  0  0  0  0  0  0  0  0
   45.0140   36.1900   43.0550 C   0  0  0  0  0  0  0  0  0  0  0  0
   41.2860   35.5770   38.9900 C   0  0  0  0  0  0  0  0  0  0  0  0
   40.2490   35.7690   40.0700 C   0  0  0  0  0  0  0  0  0  0  0  0
   39.1570   33.7420   40.9060 C   0  0  0  0  0  0  0  0  0  0  0  0
   39.9780   33.5440   41.8420 O   0  0  0  0  0  0  0  0  0  0  0  0
   39.1650   34.8030   39.9710 N   0  0  0  0  0  0  0  0  0  0  0  0
   38.1280   32.7570   40.8310 N   0  0  0  0  0  0  0  0  0  0  0  0
   42.4374   35.9644   41.4202 H   0  0  0  0  0  0  0  0  0  0  0  0
   44.8235   32.6070   38.7381 H   0  0  0  0  0  0  0  0  0  0  0  0
   43.9081   34.1866   43.1310 H   0  0  0  0  0  0  0  0  0  0  0  0
   46.8155   34.8994   43.3747 H   0  0  0  0  0  0  0  0  0  0  0  0
   46.9287   35.3413   41.8998 H   0  0  0  0  0  0  0  0  0  0  0  0
   44.7528   37.0536   42.4258 H   0  0  0  0  0  0  0  0  0  0  0  0
   44.8392   36.7731   43.9712 H   0  0  0  0  0  0  0  0  0  0  0  0
   41.5692   36.5588   38.5828 H   0  0  0  0  0  0  0  0  0  0  0  0
   40.8588   34.9440   38.1983 H   0  0  0  0  0  0  0  0  0  0  0  0
   40.7344   35.6571   41.0508 H   0  0  0  0  0  0  0  0  0  0  0  0
   39.8176   36.7735   39.9484 H   0  0  0  0  0  0  0  0  0  0  0  0
   38.4343   34.8885   39.2502 H   0  0  0  0  0  0  0  0  0  0  0  0
   37.4037   32.8234   40.1017 H   0  0  0  0  0  0  0  0  0  0  0  0
   38.1093   31.9794   41.5062 H   0  0  0  0  0  0  0  0  0  0  0  0
  1  7  1  0
  2  1  2  0
  3  2  1  0
  4  5  1  0
  4  3  2  0
  5  6  2  0
  6  1  1  0
  7  9  1  0
  8  7  1  0
  8  9  1  0
 10  3  1  0
 10 11  1  0
 12 13  2  0
 14 11  1  0
 14 12  1  0
 15 12  1  0
  2 16  1  0
  5 17  1  0
  7 18  1  0
  8 19  1  0
  8 20  1  0
  9 21  1  0
  9 22  1  0
 10 23  1  0
 10 24  1  0
 11 25  1  0
 11 26  1  0
 14 27  1  0
 15 28  1  0
 15 29  1  0
M  ISO  8  16  14  17  14  18  13  19  13  20  13  21  13  22  13  23   8
M  ISO  3  24   8  25   8  26   8
M  END
>  <minimizedAffinity>  (1) 
-4.59801292

>  <minimizedRMSD>  (1) 
0.275907189

$$$$
