
     RDKit          3D

 21 22  0  0  0  0  0  0  0  0999 V2000
   44.5830   33.1260   41.1890 Br  0  0  0  0  0  0  0  0  0  0  0  0
   46.2720   33.9800   40.9420 C   0  0  0  0  0  0  0  0  0  0  0  0
   46.8230   34.7350   41.9480 C   0  0  0  0  0  0  0  0  0  0  0  0
   48.0650   35.3750   41.7940 C   0  0  0  0  0  0  0  0  0  0  0  0
   48.7090   35.2170   40.5980 C   0  0  0  0  0  0  0  0  0  0  0  0
   48.1310   34.4580   39.6170 C   0  0  0  0  0  0  0  0  0  0  0  0
   46.9260   33.8260   39.7390 C   0  0  0  0  0  0  0  0  0  0  0  0
   45.5970   34.0470   45.3280 C   0  0  0  0  0  0  0  0  0  0  0  0
   44.6960   35.1090   45.5830 C   0  0  0  0  0  0  0  0  0  0  0  0
   44.5350   36.0490   44.5630 C   0  0  0  0  0  0  0  0  0  0  0  0
   45.2340   35.8920   43.4150 N   0  0  0  0  0  0  0  0  0  0  0  0
   46.0870   34.8650   43.2040 C   0  0  0  0  0  0  0  0  0  0  0  0
   46.2620   33.9440   44.1720 N   0  0  0  0  0  0  0  0  0  0  0  0
   46.2730   32.8610   38.3860 S   0  0  0  0  0  0  0  0  0  0  0  0
   48.5015   35.9788   42.6032 H   0  0  0  0  0  0  0  0  0  0  0  0
   49.6840   35.6963   40.4259 H   0  0  0  0  0  0  0  0  0  0  0  0
   48.6732   34.3494   38.6661 H   0  0  0  0  0  0  0  0  0  0  0  0
   45.7549   33.2835   46.1040 H   0  0  0  0  0  0  0  0  0  0  0  0
   44.1511   35.1894   46.5352 H   0  0  0  0  0  0  0  0  0  0  0  0
   43.8521   36.9019   44.6904 H   0  0  0  0  0  0  0  0  0  0  0  0
   45.5575   31.8036   38.8828 H   0  0  0  0  0  0  0  0  0  0  0  0
  2  1  1  0
  2  3  2  0
  3 12  1  0
  4  3  1  0
  5  4  2  0
  6  7  2  0
  6  5  1  0
  7  2  1  0
  8  9  2  0
 10  9  1  0
 11 10  2  0
 12 11  1  0
 12 13  2  0
 13  8  1  0
 14  7  1  0
  4 15  1  0
  5 16  1  0
  6 17  1  0
  8 18  1  0
  9 19  1  0
 10 20  1  0
 14 21  1  0
M  ISO  7  15  14  16  14  17  14  18  14  19  14  20  14  21  11
M  END
>  <minimizedAffinity>  (1) 
-5.06812811

>  <minimizedRMSD>  (1) 
0.0113744335

$$$$
