
     RDKit          3D

 56 60  0  0  1  0  0  0  0  0999 V2000
   39.4920   33.5470   40.7620 C   0  0  0  0  0  0  0  0  0  0  0  0
   39.8650   33.8370   41.9400 O   0  0  0  0  0  0  0  0  0  0  0  0
   39.5550   34.4170   39.6600 N   0  0  0  0  0  0  0  0  0  0  0  0
   38.9430   32.1900   40.5100 C   0  0  0  0  0  0  0  0  0  0  0  0
   38.5990   31.8350   39.2210 C   0  0  0  0  0  0  0  0  0  0  0  0
   38.0810   30.6230   38.8230 C   0  0  0  0  0  0  0  0  0  0  0  0
   37.8980   29.6910   39.8370 C   0  0  0  0  0  0  0  0  0  0  0  0
   38.2510   30.0730   41.1240 C   0  0  0  0  0  0  0  0  0  0  0  0
   38.7530   31.2680   41.4570 N   0  0  0  0  0  0  0  0  0  0  0  0
   38.0590   29.0690   42.2370 C   0  0  0  0  0  0  0  0  0  0  0  0
   39.2520   28.1940   42.2530 C   0  0  0  0  0  0  0  0  0  0  0  0
   40.2740   28.4220   43.0300 C   0  0  0  0  0  0  0  0  0  0  0  0
   41.3690   27.5230   42.9850 N   0  0  0  0  0  0  0  0  0  0  0  0
   42.8010   27.3510   43.0090 C   0  0  0  0  0  0  0  0  0  0  0  0
   43.8330   28.0260   43.3150 O   0  0  0  0  0  0  0  0  0  0  0  0
   42.7300   25.9740   42.5050 C   0  0  0  0  0  0  0  0  0  0  0  0
   41.2610   26.0820   42.8640 C   0  0  2  0  0  0  0  0  0  0  0  0
   40.2300   25.7470   41.4320 S   0  0  0  0  0  0  0  0  0  0  0  0
   39.0570   27.1180   41.2880 C   0  0  0  0  0  0  0  0  0  0  0  0
   40.3870   29.5520   43.9800 C   0  0  0  0  0  0  0  0  0  0  0  0
   40.2200   29.7440   45.2070 O   0  0  0  0  0  0  0  0  0  0  0  0
   40.7620   30.8280   43.6360 O   0  0  0  0  0  0  0  0  0  0  0  0
   40.2510   35.6670   39.8300 C   0  0  0  0  0  0  0  0  0  0  0  0
   41.5400   35.7540   39.0310 C   0  0  0  0  0  0  0  0  0  0  0  0
   44.1160   34.5040   41.5120 C   0  0  0  0  0  0  0  0  0  0  0  0
   43.1150   35.3150   40.9140 C   0  0  0  0  0  0  0  0  0  0  0  0
   42.5940   34.9450   39.6900 C   0  0  0  0  0  0  0  0  0  0  0  0
   43.0980   33.7890   39.1310 N   0  0  0  0  0  0  0  0  0  0  0  0
   44.0590   33.0490   39.7530 C   0  0  0  0  0  0  0  0  0  0  0  0
   44.5590   33.4090   40.9320 N   0  0  0  0  0  0  0  0  0  0  0  0
   44.6790   34.9270   42.8340 C   0  0  0  0  0  0  0  0  0  0  0  0
   46.1920   35.3540   42.6930 C   0  0  0  0  0  0  0  0  0  0  0  0
   45.1150   36.2210   43.1710 C   0  0  0  0  0  0  0  0  0  0  0  0
   39.1181   34.1692   38.7608 H   0  0  0  0  0  0  0  0  0  0  0  0
   38.7533   32.5920   38.4379 H   0  0  0  0  0  0  0  0  0  0  0  0
   37.8293   30.4074   37.7741 H   0  0  0  0  0  0  0  0  0  0  0  0
   37.4900   28.6910   39.6284 H   0  0  0  0  0  0  0  0  0  0  0  0
   37.9617   29.5900   43.2009 H   0  0  0  0  0  0  0  0  0  0  0  0
   37.1456   28.4781   42.0742 H   0  0  0  0  0  0  0  0  0  0  0  0
   43.3024   25.2315   43.0804 H   0  0  0  0  0  0  0  0  0  0  0  0
   43.0908   25.6727   41.5105 H   0  0  0  0  0  0  0  0  0  0  0  0
   40.8609   25.4547   43.6742 H   0  0  0  0  0  0  0  0  0  0  0  0
   39.1502   27.5433   40.2778 H   0  0  0  0  0  0  0  0  0  0  0  0
   38.0616   26.6964   41.4915 H   0  0  0  0  0  0  0  0  0  0  0  0
   40.8147   31.5324   44.3296 H   0  0  0  0  0  0  0  0  0  0  0  0
   39.5862   36.4825   39.5091 H   0  0  0  0  0  0  0  0  0  0  0  0
   40.5223   35.7453   40.8931 H   0  0  0  0  0  0  0  0  0  0  0  0
   41.8656   36.8033   38.9760 H   0  0  0  0  0  0  0  0  0  0  0  0
   41.3656   35.3668   38.0163 H   0  0  0  0  0  0  0  0  0  0  0  0
   42.7597   36.2253   41.4190 H   0  0  0  0  0  0  0  0  0  0  0  0
   44.4295   32.1333   39.2690 H   0  0  0  0  0  0  0  0  0  0  0  0
   44.0105   34.2470   43.3824 H   0  0  0  0  0  0  0  0  0  0  0  0
   46.9536   34.9672   43.3860 H   0  0  0  0  0  0  0  0  0  0  0  0
   46.9529   35.3764   41.8989 H   0  0  0  0  0  0  0  0  0  0  0  0
   44.7979   37.0676   42.5444 H   0  0  0  0  0  0  0  0  0  0  0  0
   45.0038   36.8200   44.0869 H   0  0  0  0  0  0  0  0  0  0  0  0
  1  2  2  0
  3 23  1  0
  3  1  1  0
  4  1  1  0
  4  9  1  0
  5  4  2  0
  6  5  1  0
  6  7  2  0
  7  8  1  0
  8  9  2  0
  8 10  1  0
 10 11  1  0
 11 12  2  0
 12 20  1  0
 13 14  1  0
 13 12  1  0
 14 15  2  0
 16 17  1  0
 16 14  1  0
 17 18  1  0
 17 13  1  0
 19 18  1  0
 19 11  1  0
 20 21  2  0
 22 20  1  0
 24 27  1  0
 24 23  1  0
 25 31  1  0
 26 25  2  0
 27 26  1  0
 28 27  2  0
 28 29  1  0
 29 30  2  0
 30 25  1  0
 31 33  1  0
 32 31  1  0
 32 33  1  0
  3 34  1  0
  5 35  1  0
  6 36  1  0
  7 37  1  0
 10 38  1  0
 10 39  1  0
 16 40  1  0
 16 41  1  0
 17 42  1  1
 19 43  1  0
 19 44  1  0
 22 45  1  0
 23 46  1  0
 23 47  1  0
 24 48  1  0
 24 49  1  0
 26 50  1  0
 29 51  1  0
 31 52  1  0
 32 53  1  0
 32 54  1  0
 33 55  1  0
 33 56  1  0
M  ISO  8  35  14  36  14  37  14  38   8  39   8  40  13  41  13  42  13
M  ISO  8  43  13  44  13  45   3  46   8  47   8  48   8  49   8  50  14
M  ISO  6  51  14  52  13  53  13  54  13  55  13  56  13
M  END
>  <minimizedAffinity>  (1) 
-5.88802147

>  <minimizedRMSD>  (1) 
1.97610521

$$$$
