
     RDKit          3D

 43 45  0  0  0  0  0  0  0  0999 V2000
   39.6600   35.5020   40.5330 C   0  0  0  0  0  0  0  0  0  0  0  0
   39.1780   33.1200   40.7730 C   0  0  0  0  0  0  0  0  0  0  0  0
   39.6690   33.0620   41.9410 O   0  0  0  0  0  0  0  0  0  0  0  0
   39.0440   34.3020   40.0090 N   0  0  0  0  0  0  0  0  0  0  0  0
   38.7000   31.8660   40.1360 C   0  0  0  0  0  0  0  0  0  0  0  0
   39.0640   31.5950   38.8300 C   0  0  0  0  0  0  0  0  0  0  0  0
   38.6950   30.4720   38.1120 C   0  0  0  0  0  0  0  0  0  0  0  0
   37.8970   29.5730   38.7970 C   0  0  0  0  0  0  0  0  0  0  0  0
   37.5480   29.8650   40.0990 C   0  0  0  0  0  0  0  0  0  0  0  0
   37.9280   30.9710   40.7610 N   0  0  0  0  0  0  0  0  0  0  0  0
   35.7620   28.0780   38.7870 N   0  0  0  0  0  0  0  0  0  0  0  0
   36.0440   27.9070   40.0330 C   0  0  0  0  0  0  0  0  0  0  0  0
   36.7270   28.9140   40.7650 N   0  0  0  0  0  0  0  0  0  0  0  0
   35.6440   26.6800   40.6270 N   0  0  0  0  0  0  0  0  0  0  0  0
   35.2670   27.3850   38.2010 H   0  0  0  0  0  0  0  0  0  0  0  0
   40.8330   35.9710   39.6780 C   0  0  0  0  0  0  0  0  0  0  0  0
   43.8460   34.6940   41.5900 C   0  0  0  0  0  0  0  0  0  0  0  0
   42.6850   35.4430   41.2620 C   0  0  0  0  0  0  0  0  0  0  0  0
   42.0550   35.2190   40.0560 C   0  0  0  0  0  0  0  0  0  0  0  0
   42.6150   34.2630   39.2400 N   0  0  0  0  0  0  0  0  0  0  0  0
   43.7350   33.5690   39.6040 C   0  0  0  0  0  0  0  0  0  0  0  0
   44.3380   33.7890   40.7680 N   0  0  0  0  0  0  0  0  0  0  0  0
   44.5250   34.9600   42.8970 C   0  0  0  0  0  0  0  0  0  0  0  0
   46.0370   35.3680   42.6700 C   0  0  0  0  0  0  0  0  0  0  0  0
   45.0250   36.2020   43.3270 C   0  0  0  0  0  0  0  0  0  0  0  0
   38.9051   36.3013   40.5670 H   0  0  0  0  0  0  0  0  0  0  0  0
   40.0461   35.2714   41.5368 H   0  0  0  0  0  0  0  0  0  0  0  0
   38.5295   34.3087   39.1168 H   0  0  0  0  0  0  0  0  0  0  0  0
   39.6997   32.3337   38.3198 H   0  0  0  0  0  0  0  0  0  0  0  0
   39.0128   30.3057   37.0721 H   0  0  0  0  0  0  0  0  0  0  0  0
   37.5492   28.6475   38.3148 H   0  0  0  0  0  0  0  0  0  0  0  0
   36.6267   28.9560   41.7892 H   0  0  0  0  0  0  0  0  0  0  0  0
   35.8475   26.4982   41.6202 H   0  0  0  0  0  0  0  0  0  0  0  0
   35.1505   25.9723   40.0645 H   0  0  0  0  0  0  0  0  0  0  0  0
   40.9990   37.0460   39.8419 H   0  0  0  0  0  0  0  0  0  0  0  0
   40.6068   35.7916   38.6166 H   0  0  0  0  0  0  0  0  0  0  0  0
   42.2922   36.1943   41.9629 H   0  0  0  0  0  0  0  0  0  0  0  0
   44.1459   32.8125   38.9192 H   0  0  0  0  0  0  0  0  0  0  0  0
   43.8846   34.2404   43.4281 H   0  0  0  0  0  0  0  0  0  0  0  0
   46.8421   34.8951   43.2515 H   0  0  0  0  0  0  0  0  0  0  0  0
   46.7299   35.4584   41.8205 H   0  0  0  0  0  0  0  0  0  0  0  0
   44.6811   37.1160   42.8207 H   0  0  0  0  0  0  0  0  0  0  0  0
   45.0074   36.7028   44.3062 H   0  0  0  0  0  0  0  0  0  0  0  0
  2  3  2  0
  4  1  1  0
  4  2  1  0
  5 10  1  0
  5  2  1  0
  6  5  2  0
  7  8  2  0
  7  6  1  0
  8  9  1  0
  9 10  2  0
  9 13  1  0
 11 12  2  0
 12 14  1  0
 12 13  1  0
 15 11  1  0
 16 19  1  0
 16  1  1  0
 17 23  1  0
 18 17  2  0
 19 18  1  0
 20 21  1  0
 20 19  2  0
 21 22  2  0
 22 17  1  0
 23 25  1  0
 24 23  1  0
 24 25  1  0
  1 26  1  0
  1 27  1  0
  4 28  1  0
  6 29  1  0
  7 30  1  0
  8 31  1  0
 13 32  1  0
 14 33  1  0
 14 34  1  0
 16 35  1  0
 16 36  1  0
 18 37  1  0
 21 38  1  0
 23 39  1  0
 24 40  1  0
 24 41  1  0
 25 42  1  0
 25 43  1  0
M  ISO  8  26   8  27   8  29  14  30  14  31  14  35   8  36   8  37  14
M  ISO  6  38  14  39  13  40  13  41  13  42  13  43  13
M  END
>  <minimizedAffinity>  (1) 
-5.6231451

>  <minimizedRMSD>  (1) 
0.609648407

$$$$
