
     RDKit          3D

 49 52  0  0  1  0  0  0  0  0999 V2000
   40.0300   36.1150   40.4120 C   0  0  0  0  0  0  0  0  0  0  0  0
   39.3860   33.7680   40.5590 C   0  0  0  0  0  0  0  0  0  0  0  0
   39.6670   33.6960   41.7970 O   0  0  0  0  0  0  0  0  0  0  0  0
   39.4460   34.9470   39.7880 N   0  0  0  0  0  0  0  0  0  0  0  0
   38.9630   32.5380   39.8480 C   0  0  0  0  0  0  0  0  0  0  0  0
   39.0360   32.5180   38.4570 C   0  0  0  0  0  0  0  0  0  0  0  0
   38.6720   31.4360   37.6820 C   0  0  0  0  0  0  0  0  0  0  0  0
   38.2030   30.3060   38.3640 C   0  0  0  0  0  0  0  0  0  0  0  0
   38.1540   30.3880   39.7340 C   0  0  0  0  0  0  0  0  0  0  0  0
   38.5080   31.4350   40.4780 N   0  0  0  0  0  0  0  0  0  0  0  0
   37.9740   29.2970   41.9590 C   0  0  2  0  0  0  0  0  0  0  0  0
   37.6600   29.1970   40.4760 C   0  0  2  0  0  0  0  0  0  0  0  0
   38.3200   28.0270   40.1280 O   0  0  0  0  0  0  0  0  0  0  0  0
   39.5470   28.0440   40.7470 C   0  0  0  0  0  0  0  0  0  0  0  0
   39.2170   28.4550   42.1570 C   0  0  1  0  0  0  0  0  0  0  0  0
   36.9650   28.7980   42.7640 O   0  0  0  0  0  0  0  0  0  0  0  0
   40.2710   29.2010   42.7160 O   0  0  0  0  0  0  0  0  0  0  0  0
   41.3990   36.4610   39.8340 C   0  0  0  0  0  0  0  0  0  0  0  0
   44.0020   34.4440   41.7080 C   0  0  0  0  0  0  0  0  0  0  0  0
   43.0830   35.4800   41.3890 C   0  0  0  0  0  0  0  0  0  0  0  0
   42.3750   35.4090   40.2060 C   0  0  0  0  0  0  0  0  0  0  0  0
   42.6190   34.3150   39.4070 N   0  0  0  0  0  0  0  0  0  0  0  0
   43.5160   33.3480   39.7670 C   0  0  0  0  0  0  0  0  0  0  0  0
   44.1980   33.4180   40.9070 N   0  0  0  0  0  0  0  0  0  0  0  0
   44.7620   34.5530   42.9880 C   0  0  0  0  0  0  0  0  0  0  0  0
   46.1530   35.2620   42.7640 C   0  0  0  0  0  0  0  0  0  0  0  0
   45.0910   35.7430   43.6600 C   0  0  0  0  0  0  0  0  0  0  0  0
   39.3559   36.9709   40.2599 H   0  0  0  0  0  0  0  0  0  0  0  0
   40.1642   35.8921   41.4808 H   0  0  0  0  0  0  0  0  0  0  0  0
   39.0895   34.9758   38.8221 H   0  0  0  0  0  0  0  0  0  0  0  0
   39.4061   33.4189   37.9457 H   0  0  0  0  0  0  0  0  0  0  0  0
   38.7463   31.4596   36.5848 H   0  0  0  0  0  0  0  0  0  0  0  0
   37.8894   29.3977   37.8286 H   0  0  0  0  0  0  0  0  0  0  0  0
   38.0976   30.3527   42.2424 H   0  0  0  0  0  0  0  0  0  0  0  0
   36.5867   29.1724   40.2362 H   0  0  0  0  0  0  0  0  0  0  0  0
   40.0131   27.0479   40.7256 H   0  0  0  0  0  0  0  0  0  0  0  0
   40.2664   28.7181   40.2590 H   0  0  0  0  0  0  0  0  0  0  0  0
   39.0645   27.6143   42.8498 H   0  0  0  0  0  0  0  0  0  0  0  0
   37.2111   28.9197   43.7152 H   0  0  0  0  0  0  0  0  0  0  0  0
   40.2155   29.1617   43.7037 H   0  0  0  0  0  0  0  0  0  0  0  0
   41.7325   37.4289   40.2364 H   0  0  0  0  0  0  0  0  0  0  0  0
   41.3282   36.5232   38.7380 H   0  0  0  0  0  0  0  0  0  0  0  0
   42.9378   36.3271   42.0755 H   0  0  0  0  0  0  0  0  0  0  0  0
   43.6778   32.4906   39.0972 H   0  0  0  0  0  0  0  0  0  0  0  0
   44.3053   33.6325   43.3805 H   0  0  0  0  0  0  0  0  0  0  0  0
   47.0789   34.8278   43.1692 H   0  0  0  0  0  0  0  0  0  0  0  0
   46.7314   35.6543   41.9145 H   0  0  0  0  0  0  0  0  0  0  0  0
   44.5535   36.6665   43.3989 H   0  0  0  0  0  0  0  0  0  0  0  0
   45.0913   36.0120   44.7266 H   0  0  0  0  0  0  0  0  0  0  0  0
  2  3  2  0
  4  1  1  0
  4  2  1  0
  5 10  1  0
  5  2  1  0
  6  5  2  0
  7  8  2  0
  7  6  1  0
  8  9  1  0
  9 10  2  0
 11 15  1  0
 11 16  1  0
 12  9  1  0
 12 11  1  0
 13 12  1  0
 13 14  1  0
 14 15  1  0
 15 17  1  0
 18 21  1  0
 18  1  1  0
 19 25  1  0
 20 19  2  0
 21 20  1  0
 22 23  1  0
 22 21  2  0
 23 24  2  0
 24 19  1  0
 25 27  1  0
 26 25  1  0
 26 27  1  0
  1 28  1  0
  1 29  1  0
  4 30  1  0
  6 31  1  0
  7 32  1  0
  8 33  1  0
 11 34  1  1
 12 35  1  1
 14 36  1  0
 14 37  1  0
 15 38  1  1
 16 39  1  0
 17 40  1  0
 18 41  1  0
 18 42  1  0
 20 43  1  0
 23 44  1  0
 25 45  1  0
 26 46  1  0
 26 47  1  0
 27 48  1  0
 27 49  1  0
M  ISO  8  28   8  29   8  31  14  32  14  33  14  34  13  35  13  36  13
M  ISO  8  37  13  38  13  39   3  40   3  41   8  42   8  43  14  44  14
M  ISO  5  45  13  46  13  47  13  48  13  49  13
M  END
>  <minimizedAffinity>  (1) 
-5.42397738

>  <minimizedRMSD>  (1) 
1.47532403

$$$$
