
     RDKit          3D

 39 41  0  0  0  0  0  0  0  0999 V2000
   41.0660   35.9530   39.3300 C   0  0  0  0  0  0  0  0  0  0  0  0
   43.9260   34.6700   41.4570 C   0  0  0  0  0  0  0  0  0  0  0  0
   42.8010   35.4330   41.0410 C   0  0  0  0  0  0  0  0  0  0  0  0
   42.2460   35.1880   39.8010 C   0  0  0  0  0  0  0  0  0  0  0  0
   42.8400   34.2010   39.0440 N   0  0  0  0  0  0  0  0  0  0  0  0
   43.9180   33.5000   39.4950 C   0  0  0  0  0  0  0  0  0  0  0  0
   44.4510   33.7360   40.6910 N   0  0  0  0  0  0  0  0  0  0  0  0
   44.5230   34.9540   42.8000 C   0  0  0  0  0  0  0  0  0  0  0  0
   46.0480   35.3470   42.6690 C   0  0  0  0  0  0  0  0  0  0  0  0
   45.0030   36.2010   43.2380 C   0  0  0  0  0  0  0  0  0  0  0  0
   39.8790   35.6950   40.2630 C   0  0  0  0  0  0  0  0  0  0  0  0
   39.3320   33.4170   40.9150 C   0  0  0  0  0  0  0  0  0  0  0  0
   39.8600   33.5360   42.0710 O   0  0  0  0  0  0  0  0  0  0  0  0
   39.2100   34.4460   39.9650 N   0  0  0  0  0  0  0  0  0  0  0  0
   38.7980   32.0940   40.5270 C   0  0  0  0  0  0  0  0  0  0  0  0
   38.6570   31.7980   39.1820 C   0  0  0  0  0  0  0  0  0  0  0  0
   38.1770   30.6110   38.6680 C   0  0  0  0  0  0  0  0  0  0  0  0
   37.8080   29.6440   39.6080 C   0  0  0  0  0  0  0  0  0  0  0  0
   37.9620   29.9740   40.9380 C   0  0  0  0  0  0  0  0  0  0  0  0
   38.4340   31.1390   41.4030 N   0  0  0  0  0  0  0  0  0  0  0  0
   37.5560   28.9090   41.9000 C   0  0  0  0  0  0  0  0  0  0  0  0
   41.3032   37.0271   39.3282 H   0  0  0  0  0  0  0  0  0  0  0  0
   40.8056   35.6311   38.3109 H   0  0  0  0  0  0  0  0  0  0  0  0
   42.3787   36.2077   41.6979 H   0  0  0  0  0  0  0  0  0  0  0  0
   44.3578   32.7207   38.8552 H   0  0  0  0  0  0  0  0  0  0  0  0
   43.8445   34.2470   43.2998 H   0  0  0  0  0  0  0  0  0  0  0  0
   46.8077   34.8805   43.3134 H   0  0  0  0  0  0  0  0  0  0  0  0
   46.7976   35.4151   41.8668 H   0  0  0  0  0  0  0  0  0  0  0  0
   44.7023   37.1068   42.6912 H   0  0  0  0  0  0  0  0  0  0  0  0
   44.9234   36.7223   44.2034 H   0  0  0  0  0  0  0  0  0  0  0  0
   40.2442   35.6625   41.3001 H   0  0  0  0  0  0  0  0  0  0  0  0
   39.1535   36.5092   40.1192 H   0  0  0  0  0  0  0  0  0  0  0  0
   38.6699   34.3174   39.0974 H   0  0  0  0  0  0  0  0  0  0  0  0
   38.9528   32.5752   38.4619 H   0  0  0  0  0  0  0  0  0  0  0  0
   38.0900   30.4362   37.5855 H   0  0  0  0  0  0  0  0  0  0  0  0
   37.4128   28.6645   39.3006 H   0  0  0  0  0  0  0  0  0  0  0  0
   37.6945   29.2722   42.9290 H   0  0  0  0  0  0  0  0  0  0  0  0
   36.4978   28.6546   41.7402 H   0  0  0  0  0  0  0  0  0  0  0  0
   38.1763   28.0147   41.7402 H   0  0  0  0  0  0  0  0  0  0  0  0
  1  4  1  0
  1 11  1  0
  2  8  1  0
  3  2  2  0
  4  3  1  0
  5  6  1  0
  5  4  2  0
  6  7  2  0
  7  2  1  0
  8 10  1  0
  9  8  1  0
  9 10  1  0
 12 13  2  0
 14 11  1  0
 14 12  1  0
 15 12  1  0
 15 20  1  0
 16 15  2  0
 17 16  1  0
 17 18  2  0
 18 19  1  0
 19 20  2  0
 19 21  1  0
  1 22  1  0
  1 23  1  0
  3 24  1  0
  6 25  1  0
  8 26  1  0
  9 27  1  0
  9 28  1  0
 10 29  1  0
 10 30  1  0
 11 31  1  0
 11 32  1  0
 14 33  1  0
 16 34  1  0
 17 35  1  0
 18 36  1  0
 21 37  1  0
 21 38  1  0
 21 39  1  0
M  ISO  8  22   8  23   8  24  14  25  14  26  13  27  13  28  13  29  13
M  ISO  8  30  13  31   8  32   8  34  14  35  14  36  14  37   8  38   8
M  ISO  1  39   8
M  END
>  <minimizedAffinity>  (1) 
-5.1987114

>  <minimizedRMSD>  (1) 
0.29520908

$$$$
