
     RDKit          3D

 42 45  0  0  0  0  0  0  0  0999 V2000
   39.5520   35.3680   40.2000 C   0  0  0  0  0  0  0  0  0  0  0  0
   38.9370   33.0170   40.0840 C   0  0  0  0  0  0  0  0  0  0  0  0
   38.8810   32.9020   41.3540 O   0  0  0  0  0  0  0  0  0  0  0  0
   39.1820   34.2200   39.3990 N   0  0  0  0  0  0  0  0  0  0  0  0
   38.7330   31.8070   39.2530 C   0  0  0  0  0  0  0  0  0  0  0  0
   38.8900   31.9110   37.8880 C   0  0  0  0  0  0  0  0  0  0  0  0
   38.7410   30.8770   36.9840 C   0  0  0  0  0  0  0  0  0  0  0  0
   38.4070   29.6450   37.5140 C   0  0  0  0  0  0  0  0  0  0  0  0
   38.2570   29.5840   38.8970 C   0  0  0  0  0  0  0  0  0  0  0  0
   38.4110   30.6080   39.7260 N   0  0  0  0  0  0  0  0  0  0  0  0
   37.8970   28.2620   39.4900 C   0  0  0  0  0  0  0  0  0  0  0  0
   38.3080   27.9160   40.8460 C   0  0  0  0  0  0  0  0  0  0  0  0
   37.6290   26.2430   41.0640 S   0  0  0  0  0  0  0  0  0  0  0  0
   36.8970   26.2450   39.3210 C   0  0  0  0  0  0  0  0  0  0  0  0
   37.2120   27.3130   38.8990 N   0  0  0  0  0  0  0  0  0  0  0  0
   40.8880   35.9740   39.7720 C   0  0  0  0  0  0  0  0  0  0  0  0
   43.7760   34.5940   41.7950 C   0  0  0  0  0  0  0  0  0  0  0  0
   42.7250   35.4520   41.3730 C   0  0  0  0  0  0  0  0  0  0  0  0
   41.9930   35.1260   40.2480 C   0  0  0  0  0  0  0  0  0  0  0  0
   42.3500   33.9580   39.6010 N   0  0  0  0  0  0  0  0  0  0  0  0
   43.3670   33.1730   40.0490 C   0  0  0  0  0  0  0  0  0  0  0  0
   44.0770   33.4900   41.1420 N   0  0  0  0  0  0  0  0  0  0  0  0
   44.5570   34.9770   43.0090 C   0  0  0  0  0  0  0  0  0  0  0  0
   46.0440   35.3460   42.6240 C   0  0  0  0  0  0  0  0  0  0  0  0
   45.0930   36.2470   43.2830 C   0  0  0  0  0  0  0  0  0  0  0  0
   38.7691   36.1344   40.1010 H   0  0  0  0  0  0  0  0  0  0  0  0
   39.6569   35.0293   41.2413 H   0  0  0  0  0  0  0  0  0  0  0  0
   39.1019   34.2819   38.3740 H   0  0  0  0  0  0  0  0  0  0  0  0
   39.1560   32.8992   37.4847 H   0  0  0  0  0  0  0  0  0  0  0  0
   38.8804   31.0259   35.9031 H   0  0  0  0  0  0  0  0  0  0  0  0
   38.2670   28.7593   36.8768 H   0  0  0  0  0  0  0  0  0  0  0  0
   38.8866   28.5190   41.5613 H   0  0  0  0  0  0  0  0  0  0  0  0
   36.3211   25.4534   38.8194 H   0  0  0  0  0  0  0  0  0  0  0  0
   40.9246   36.0402   38.6746 H   0  0  0  0  0  0  0  0  0  0  0  0
   40.9875   36.9797   40.2065 H   0  0  0  0  0  0  0  0  0  0  0  0
   42.4963   36.3680   41.9374 H   0  0  0  0  0  0  0  0  0  0  0  0
   43.6139   32.2526   39.4995 H   0  0  0  0  0  0  0  0  0  0  0  0
   43.9581   34.3174   43.6542 H   0  0  0  0  0  0  0  0  0  0  0  0
   46.8926   34.9186   43.1783 H   0  0  0  0  0  0  0  0  0  0  0  0
   46.6648   35.3519   41.7160 H   0  0  0  0  0  0  0  0  0  0  0  0
   44.7115   37.1153   42.7258 H   0  0  0  0  0  0  0  0  0  0  0  0
   45.1572   36.8344   44.2108 H   0  0  0  0  0  0  0  0  0  0  0  0
  2  3  2  0
  4  2  1  0
  4  1  1  0
  5 10  1  0
  5  2  1  0
  6  5  2  0
  7  8  2  0
  7  6  1  0
  8  9  1  0
  9 11  1  0
  9 10  2  0
 11 12  2  0
 12 13  1  0
 14 13  1  0
 15 14  2  0
 15 11  1  0
 16  1  1  0
 16 19  1  0
 17 23  1  0
 18 17  2  0
 19 18  1  0
 20 21  1  0
 20 19  2  0
 21 22  2  0
 22 17  1  0
 23 25  1  0
 24 23  1  0
 24 25  1  0
  1 26  1  0
  1 27  1  0
  4 28  1  0
  6 29  1  0
  7 30  1  0
  8 31  1  0
 12 32  1  0
 14 33  1  0
 16 34  1  0
 16 35  1  0
 18 36  1  0
 21 37  1  0
 23 38  1  0
 24 39  1  0
 24 40  1  0
 25 41  1  0
 25 42  1  0
M  ISO  8  26   8  27   8  29  14  30  14  31  14  32  14  33  14  34   8
M  ISO  8  35   8  36  14  37  14  38  13  39  13  40  13  41  13  42  13
M  END
>  <minimizedAffinity>  (1) 
-4.93297338

>  <minimizedRMSD>  (1) 
1.77951312

$$$$
