
     RDKit          3D

 22 22  0  0  0  0  0  0  0  0999 V2000
   45.1310   34.5340   45.2510 C   0  0  0  0  0  0  0  0  0  0  0  0
   46.1550   33.8890   44.5200 C   0  0  0  0  0  0  0  0  0  0  0  0
   46.5550   34.4360   43.3120 C   0  0  0  0  0  0  0  0  0  0  0  0
   45.9350   35.5770   42.8830 N   0  0  0  0  0  0  0  0  0  0  0  0
   44.9650   36.1660   43.6010 C   0  0  0  0  0  0  0  0  0  0  0  0
   44.5530   35.6690   44.7730 N   0  0  0  0  0  0  0  0  0  0  0  0
   47.5550   33.7930   42.6130 O   0  0  0  0  0  0  0  0  0  0  0  0
   48.5340   35.4110   40.7700 O   0  0  0  0  0  0  0  0  0  0  0  0
   47.7450   34.1150   40.9320 P   0  0  0  0  0  0  0  0  0  0  0  0
   48.5230   32.8200   40.2240 O   0  0  0  0  0  0  0  0  0  0  0  0
   46.1960   34.3550   40.2880 O   0  0  0  0  0  0  0  0  0  0  0  0
   46.7530   32.7490   44.9790 O   0  0  0  0  0  0  0  0  0  0  0  0
   47.5660   30.8830   46.7340 O   0  0  0  0  0  0  0  0  0  0  0  0
   46.7750   32.1550   46.5550 P   0  0  0  0  0  0  0  0  0  0  0  0
   45.1670   31.8040   47.0010 O   0  0  0  0  0  0  0  0  0  0  0  0
   47.3620   33.2610   47.6860 O   0  0  0  0  0  0  0  0  0  0  0  0
   44.7994   34.1153   46.2126 H   0  0  0  0  0  0  0  0  0  0  0  0
   44.4959   37.0829   43.2147 H   0  0  0  0  0  0  0  0  0  0  0  0
   48.8809   32.2243   40.9291 H   0  0  0  0  0  0  0  0  0  0  0  0
   45.5438   34.4560   41.0259 H   0  0  0  0  0  0  0  0  0  0  0  0
   45.0943   31.7881   47.9882 H   0  0  0  0  0  0  0  0  0  0  0  0
   47.1835   32.9247   48.5998 H   0  0  0  0  0  0  0  0  0  0  0  0
  2 12  1  0
  2  1  2  0
  3  2  1  0
  4  3  2  0
  4  5  1  0
  5  6  2  0
  6  1  1  0
  7  3  1  0
  8  9  2  0
  9  7  1  0
 10  9  1  0
 11  9  1  0
 12 14  1  0
 14 13  2  0
 14 15  1  0
 14 16  1  0
  1 17  1  0
  5 18  1  0
 10 19  1  0
 11 20  1  0
 15 21  1  0
 16 22  1  0
M  ISO  6  17  14  18  14  19   3  20   3  21   3  22   3
M  END
>  <minimizedAffinity>  (1) 
-5.01479292

>  <minimizedRMSD>  (1) 
4.97918129

$$$$
