
     RDKit          3D

 28 29  0  0  1  0  0  0  0  0999 V2000
   45.4390   34.1940   44.9740 C   0  0  0  0  0  0  0  0  0  0  0  0
   46.0230   34.0960   43.6920 C   0  0  0  0  0  0  0  0  0  0  0  0
   47.0870   33.2220   43.5220 C   0  0  0  0  0  0  0  0  0  0  0  0
   47.5190   32.5030   44.5850 N   0  0  0  0  0  0  0  0  0  0  0  0
   46.9600   32.6030   45.7970 C   0  0  0  0  0  0  0  0  0  0  0  0
   45.9200   33.4450   46.0030 N   0  0  0  0  0  0  0  0  0  0  0  0
   44.4100   34.2290   41.8210 C   0  0  2  0  0  0  0  0  0  0  0  0
   45.5450   34.8770   42.5510 C   0  0  1  0  0  0  0  0  0  0  0  0
   44.9640   36.1750   43.0040 C   0  0  0  0  0  0  0  0  0  0  0  0
   43.5750   36.0620   42.8550 O   0  0  0  0  0  0  0  0  0  0  0  0
   43.3840   35.3060   41.7020 C   0  0  0  0  0  0  0  0  0  0  0  0
   43.8870   33.1380   42.5150 O   0  0  0  0  0  0  0  0  0  0  0  0
   47.6540   33.1320   42.2550 O   0  0  0  0  0  0  0  0  0  0  0  0
   50.1920   32.8500   41.6100 O   0  0  0  0  0  0  0  0  0  0  0  0
   49.1390   33.9080   41.9370 P   0  0  0  0  0  0  0  0  0  0  0  0
   48.9260   34.9790   40.6740 O   0  0  0  0  0  0  0  0  0  0  0  0
   49.6200   34.6770   43.3700 O   0  0  0  0  0  0  0  0  0  0  0  0
   44.5934   34.8774   45.1411 H   0  0  0  0  0  0  0  0  0  0  0  0
   47.3475   31.9980   46.6299 H   0  0  0  0  0  0  0  0  0  0  0  0
   44.7365   33.8294   40.8495 H   0  0  0  0  0  0  0  0  0  0  0  0
   46.4311   34.9818   41.9077 H   0  0  0  0  0  0  0  0  0  0  0  0
   45.2196   36.3587   44.0580 H   0  0  0  0  0  0  0  0  0  0  0  0
   45.3604   37.0156   42.4156 H   0  0  0  0  0  0  0  0  0  0  0  0
   43.5534   35.9132   40.8006 H   0  0  0  0  0  0  0  0  0  0  0  0
   42.3599   34.9153   41.6093 H   0  0  0  0  0  0  0  0  0  0  0  0
   43.9640   33.2987   43.4888 H   0  0  0  0  0  0  0  0  0  0  0  0
   48.7462   35.8832   41.0348 H   0  0  0  0  0  0  0  0  0  0  0  0
   49.2954   34.1580   44.1480 H   0  0  0  0  0  0  0  0  0  0  0  0
  1  6  2  0
  2  1  1  0
  3  2  2  0
  3  4  1  0
  4  5  2  0
  5  6  1  0
  7 12  1  0
  7  8  1  0
  8  9  1  0
  8  2  1  0
 10  9  1  0
 11  7  1  0
 11 10  1  0
 13  3  1  0
 14 15  2  0
 15 13  1  0
 15 17  1  0
 16 15  1  0
  1 18  1  0
  5 19  1  0
  7 20  1  6
  8 21  1  6
  9 22  1  0
  9 23  1  0
 11 24  1  0
 11 25  1  0
 12 26  1  0
 16 27  1  0
 17 28  1  0
M  ISO  8  18  14  19  14  20  13  21  13  22  13  23  13  24  13  25  13
M  ISO  3  26   3  27   3  28   3
M  END
>  <minimizedAffinity>  (1) 
-4.66847992

>  <minimizedRMSD>  (1) 
2.1681428

$$$$
