
     RDKit          3D

 17 17  0  0  0  0  0  0  0  0999 V2000
   44.5880   35.5590   44.9940 C   0  0  0  0  0  0  0  0  0  0  0  0
   45.1350   35.8100   43.7250 C   0  0  0  0  0  0  0  0  0  0  0  0
   46.1150   34.9240   43.2810 C   0  0  0  0  0  0  0  0  0  0  0  0
   46.4860   33.8790   44.0810 N   0  0  0  0  0  0  0  0  0  0  0  0
   45.9330   33.6800   45.2880 C   0  0  0  0  0  0  0  0  0  0  0  0
   44.9890   34.5170   45.7370 N   0  0  0  0  0  0  0  0  0  0  0  0
   44.6870   36.9040   42.9890 O   0  0  0  0  0  0  0  0  0  0  0  0
   46.6700   35.1610   42.0210 O   0  0  0  0  0  0  0  0  0  0  0  0
   48.2760   33.2820   41.1120 O   0  0  0  0  0  0  0  0  0  0  0  0
   48.2860   34.6840   41.7150 P   0  0  0  0  0  0  0  0  0  0  0  0
   48.9960   35.7860   40.6900 O   0  0  0  0  0  0  0  0  0  0  0  0
   49.0860   34.6020   43.2030 O   0  0  0  0  0  0  0  0  0  0  0  0
   43.8127   36.2327   45.3876 H   0  0  0  0  0  0  0  0  0  0  0  0
   46.2550   32.8301   45.9077 H   0  0  0  0  0  0  0  0  0  0  0  0
   45.0676   37.0876   42.0937 H   0  0  0  0  0  0  0  0  0  0  0  0
   49.4482   36.4878   41.2220 H   0  0  0  0  0  0  0  0  0  0  0  0
   48.4252   34.6697   43.9371 H   0  0  0  0  0  0  0  0  0  0  0  0
  1  6  2  0
  2  1  1  0
  3  2  2  0
  3  4  1  0
  4  5  2  0
  5  6  1  0
  7  2  1  0
  8  3  1  0
  9 10  2  0
 10  8  1  0
 10 12  1  0
 11 10  1  0
  1 13  1  0
  5 14  1  0
  7 15  1  0
 11 16  1  0
 12 17  1  0
M  ISO  5  13  14  14  14  15   3  16   3  17   3
M  END
>  <minimizedAffinity>  (1) 
-4.66715956

>  <minimizedRMSD>  (1) 
0.437065661

$$$$
