
     RDKit          3D

 18 18  0  0  0  0  0  0  0  0999 V2000
   44.6080   35.4750   45.0560 C   0  0  0  0  0  0  0  0  0  0  0  0
   45.1600   35.7330   43.7820 C   0  0  0  0  0  0  0  0  0  0  0  0
   46.1500   34.8790   43.3240 C   0  0  0  0  0  0  0  0  0  0  0  0
   46.5370   33.8480   44.1080 N   0  0  0  0  0  0  0  0  0  0  0  0
   45.9950   33.6240   45.3170 C   0  0  0  0  0  0  0  0  0  0  0  0
   45.0310   34.4370   45.7900 N   0  0  0  0  0  0  0  0  0  0  0  0
   44.6890   36.8390   43.0340 N   0  0  0  0  0  0  0  0  0  0  0  0
   46.6760   35.1610   42.0630 O   0  0  0  0  0  0  0  0  0  0  0  0
   48.2800   33.2770   41.1190 O   0  0  0  0  0  0  0  0  0  0  0  0
   48.2930   34.6820   41.7290 P   0  0  0  0  0  0  0  0  0  0  0  0
   48.9800   35.7860   40.6930 O   0  0  0  0  0  0  0  0  0  0  0  0
   49.1230   34.5960   43.1970 O   0  0  0  0  0  0  0  0  0  0  0  0
   43.8210   36.1344   45.4506 H   0  0  0  0  0  0  0  0  0  0  0  0
   46.3400   32.7732   45.9229 H   0  0  0  0  0  0  0  0  0  0  0  0
   45.0839   37.0372   42.1036 H   0  0  0  0  0  0  0  0  0  0  0  0
   43.9514   37.4454   43.4202 H   0  0  0  0  0  0  0  0  0  0  0  0
   49.4237   36.4990   41.2174 H   0  0  0  0  0  0  0  0  0  0  0  0
   48.4781   34.6628   43.9451 H   0  0  0  0  0  0  0  0  0  0  0  0
  1  6  2  0
  2  1  1  0
  3  2  2  0
  3  4  1  0
  4  5  2  0
  5  6  1  0
  7  2  1  0
  8  3  1  0
  9 10  2  0
 10  8  1  0
 10 12  1  0
 11 10  1  0
  1 13  1  0
  5 14  1  0
  7 15  1  0
  7 16  1  0
 11 17  1  0
 12 18  1  0
M  ISO  4  13  14  14  14  17   3  18   3
M  END
>  <minimizedAffinity>  (1) 
-4.63477993

>  <minimizedRMSD>  (1) 
0.495817393

$$$$
