
     RDKit          3D

 22 22  0  0  0  0  0  0  0  0999 V2000
   44.9610   34.8310   44.9730 C   0  0  0  0  0  0  0  0  0  0  0  0
   45.4740   35.1340   43.7000 C   0  0  0  0  0  0  0  0  0  0  0  0
   46.6010   34.4410   43.2710 C   0  0  0  0  0  0  0  0  0  0  0  0
   47.1500   33.5130   44.0960 N   0  0  0  0  0  0  0  0  0  0  0  0
   46.6410   33.2440   45.3050 C   0  0  0  0  0  0  0  0  0  0  0  0
   45.5570   33.9000   45.7360 N   0  0  0  0  0  0  0  0  0  0  0  0
   47.0990   34.7530   42.0030 O   0  0  0  0  0  0  0  0  0  0  0  0
   49.1540   33.3530   41.1380 O   0  0  0  0  0  0  0  0  0  0  0  0
   48.7940   34.7120   41.7440 P   0  0  0  0  0  0  0  0  0  0  0  0
   49.2010   35.9700   40.7270 O   0  0  0  0  0  0  0  0  0  0  0  0
   49.5390   34.8390   43.2540 O   0  0  0  0  0  0  0  0  0  0  0  0
   44.8630   36.1380   42.8330 C   0  0  0  0  0  0  0  0  0  0  0  0
   43.8080   35.6120   41.9180 C   0  0  0  0  0  0  0  0  0  0  0  0
   44.0697   35.3573   45.3452 H   0  0  0  0  0  0  0  0  0  0  0  0
   47.1139   32.4837   45.9440 H   0  0  0  0  0  0  0  0  0  0  0  0
   49.4567   36.7603   41.2656 H   0  0  0  0  0  0  0  0  0  0  0  0
   48.8618   34.7236   43.9669 H   0  0  0  0  0  0  0  0  0  0  0  0
   44.4094   36.9111   43.4706 H   0  0  0  0  0  0  0  0  0  0  0  0
   45.6675   36.5248   42.1902 H   0  0  0  0  0  0  0  0  0  0  0  0
   42.9797   35.1990   42.5124 H   0  0  0  0  0  0  0  0  0  0  0  0
   43.4326   36.4284   41.2835 H   0  0  0  0  0  0  0  0  0  0  0  0
   44.2341   34.8208   41.2835 H   0  0  0  0  0  0  0  0  0  0  0  0
  1  6  2  0
  2  1  1  0
  3  2  2  0
  3  4  1  0
  4  5  2  0
  5  6  1  0
  7  3  1  0
  8  9  2  0
  9  7  1  0
  9 11  1  0
 10  9  1  0
 12  2  1  0
 13 12  1  0
  1 14  1  0
  5 15  1  0
 10 16  1  0
 11 17  1  0
 12 18  1  0
 12 19  1  0
 13 20  1  0
 13 21  1  0
 13 22  1  0
M  ISO  8  14  14  15  14  16   3  17   3  18   8  19   8  20   8  21   8
M  ISO  1  22   8
M  END
>  <minimizedAffinity>  (1) 
-4.60561371

>  <minimizedRMSD>  (1) 
1.07366157

$$$$
