
     RDKit          3D

 30 31  0  0  0  0  0  0  0  0999 V2000
   45.2000   35.8190   43.3780 C   0  0  0  0  0  0  0  0  0  0  0  0
   45.9120   34.5880   43.4050 C   0  0  0  0  0  0  0  0  0  0  0  0
   45.8950   33.8500   44.5770 C   0  0  0  0  0  0  0  0  0  0  0  0
   45.2000   34.3330   45.6470 N   0  0  0  0  0  0  0  0  0  0  0  0
   44.5310   35.5020   45.6020 C   0  0  0  0  0  0  0  0  0  0  0  0
   44.5330   36.2330   44.4800 N   0  0  0  0  0  0  0  0  0  0  0  0
   46.5770   34.2390   42.2080 N   0  0  0  0  0  0  0  0  0  0  0  0
   47.8280   34.8460   41.7830 C   0  0  0  0  0  0  0  0  0  0  0  0
   48.3280   34.1630   40.5480 C   0  0  0  0  0  0  0  0  0  0  0  0
   47.3460   34.0750   39.5040 N   0  0  0  0  0  0  0  0  0  0  0  0
   46.0690   33.5760   39.9150 C   0  0  0  0  0  0  0  0  0  0  0  0
   45.9710   33.2160   41.3640 C   0  0  0  0  0  0  0  0  0  0  0  0
   46.5980   32.6570   44.5720 O   0  0  0  0  0  0  0  0  0  0  0  0
   45.5480   31.2180   46.5330 O   0  0  0  0  0  0  0  0  0  0  0  0
   46.8680   31.8420   46.0660 P   0  0  0  0  0  0  0  0  0  0  0  0
   48.0420   30.6860   45.8260 O   0  0  0  0  0  0  0  0  0  0  0  0
   47.3230   33.0130   47.1990 O   0  0  0  0  0  0  0  0  0  0  0  0
   45.1917   36.4321   42.4647 H   0  0  0  0  0  0  0  0  0  0  0  0
   43.9829   35.8560   46.4876 H   0  0  0  0  0  0  0  0  0  0  0  0
   47.6627   35.9123   41.5693 H   0  0  0  0  0  0  0  0  0  0  0  0
   48.5741   34.7405   42.5843 H   0  0  0  0  0  0  0  0  0  0  0  0
   49.1931   34.7246   40.1657 H   0  0  0  0  0  0  0  0  0  0  0  0
   48.5911   33.1334   40.8320 H   0  0  0  0  0  0  0  0  0  0  0  0
   47.7128   33.4499   38.7722 H   0  0  0  0  0  0  0  0  0  0  0  0
   45.3156   34.3489   39.7030 H   0  0  0  0  0  0  0  0  0  0  0  0
   45.9061   32.6443   39.3535 H   0  0  0  0  0  0  0  0  0  0  0  0
   44.9103   33.1100   41.6356 H   0  0  0  0  0  0  0  0  0  0  0  0
   46.5108   32.2709   41.5234 H   0  0  0  0  0  0  0  0  0  0  0  0
   48.3706   30.3625   46.7021 H   0  0  0  0  0  0  0  0  0  0  0  0
   47.1854   32.6587   48.1131 H   0  0  0  0  0  0  0  0  0  0  0  0
  1  2  2  0
  1  6  1  0
  2  3  1  0
  3  4  2  0
  5  4  1  0
  6  5  2  0
  7  2  1  0
  8  7  1  0
  9  8  1  0
 10 11  1  0
 10  9  1  0
 11 12  1  0
 12  7  1  0
 13  3  1  0
 13 15  1  0
 15 14  2  0
 15 17  1  0
 16 15  1  0
  1 18  1  0
  5 19  1  0
  8 20  1  0
  8 21  1  0
  9 22  1  0
  9 23  1  0
 10 24  1  0
 11 25  1  0
 11 26  1  0
 12 27  1  0
 12 28  1  0
 16 29  1  0
 17 30  1  0
M  ISO  8  18  14  19  14  20  13  21  13  22  13  23  13  24   5  25  13
M  ISO  5  26  13  27  13  28  13  29   3  30   3
M  END
>  <minimizedAffinity>  (1) 
-4.6843133

>  <minimizedRMSD>  (1) 
4.45957994

$$$$
