
     RDKit          3D

 29 31  0  0  1  0  0  0  0  0999 V2000
   47.1430   34.0230   43.7290 C   0  0  1  0  0  0  0  0  0  0  0  0
   45.6740   33.8020   43.9370 C   0  0  0  0  0  0  0  0  0  0  0  0
   46.7420   33.1400   44.8320 C   0  0  2  0  0  0  0  0  0  0  0  0
   49.7630   32.6570   41.4960 C   0  0  0  0  0  0  0  0  0  0  0  0
   49.0340   32.4670   40.2680 C   0  0  0  0  0  0  0  0  0  0  0  0
   47.6460   32.8140   40.2680 C   0  0  0  0  0  0  0  0  0  0  0  0
   47.0880   33.2940   41.3870 N   0  0  0  0  0  0  0  0  0  0  0  0
   47.8140   33.4580   42.5260 C   0  0  0  0  0  0  0  0  0  0  0  0
   49.1410   33.1430   42.5830 N   0  0  0  0  0  0  0  0  0  0  0  0
   46.7420   33.5470   46.1980 N   0  0  0  0  0  0  0  0  0  0  0  0
   46.5010   32.6230   47.2700 C   0  0  0  0  0  0  0  0  0  0  0  0
   47.4980   31.8970   47.9140 C   0  0  0  0  0  0  0  0  0  0  0  0
   47.1470   31.0360   48.9320 C   0  0  0  0  0  0  0  0  0  0  0  0
   45.8690   30.8440   49.3590 C   0  0  0  0  0  0  0  0  0  0  0  0
   44.8640   31.5600   48.7270 C   0  0  0  0  0  0  0  0  0  0  0  0
   45.2020   32.4250   47.7060 C   0  0  0  0  0  0  0  0  0  0  0  0
   47.7791   34.9181   43.6642 H   0  0  0  0  0  0  0  0  0  0  0  0
   45.0404   34.6098   44.3318 H   0  0  0  0  0  0  0  0  0  0  0  0
   44.8314   33.4539   43.3214 H   0  0  0  0  0  0  0  0  0  0  0  0
   47.0644   32.1281   45.1187 H   0  0  0  0  0  0  0  0  0  0  0  0
   50.8323   32.4033   41.5437 H   0  0  0  0  0  0  0  0  0  0  0  0
   49.5248   32.0711   39.3667 H   0  0  0  0  0  0  0  0  0  0  0  0
   47.0425   32.6877   39.3571 H   0  0  0  0  0  0  0  0  0  0  0  0
   46.9207   34.5360   46.4233 H   0  0  0  0  0  0  0  0  0  0  0  0
   48.5508   32.0083   47.6153 H   0  0  0  0  0  0  0  0  0  0  0  0
   47.9484   30.4699   49.4293 H   0  0  0  0  0  0  0  0  0  0  0  0
   45.6414   30.1449   50.1772 H   0  0  0  0  0  0  0  0  0  0  0  0
   43.8145   31.4407   49.0342 H   0  0  0  0  0  0  0  0  0  0  0  0
   44.3959   32.9874   47.2121 H   0  0  0  0  0  0  0  0  0  0  0  0
  1  2  1  0
  1  3  1  0
  2  3  1  0
  3 10  1  0
  4  9  2  0
  5  6  2  0
  5  4  1  0
  6  7  1  0
  7  8  2  0
  8  9  1  0
  8  1  1  0
 10 11  1  0
 11 16  1  0
 11 12  2  0
 12 13  1  0
 13 14  2  0
 15 14  1  0
 16 15  2  0
  1 17  1  1
  2 18  1  0
  2 19  1  0
  3 20  1  1
  4 21  1  0
  5 22  1  0
  6 23  1  0
 10 24  1  0
 12 25  1  0
 13 26  1  0
 14 27  1  0
 15 28  1  0
 16 29  1  0
M  ISO  8  17  13  18  13  19  13  20  13  21  14  22  14  23  14  25  14
M  ISO  4  26  14  27  14  28  14  29  14
M  END
>  <minimizedAffinity>  (1) 
-4.63375425

>  <minimizedRMSD>  (1) 
4.30413914

$$$$
