
     RDKit          3D

 36 37  0  0  0  0  0  0  0  0999 V2000
   45.0920   35.7090   43.4910 C   0  0  0  0  0  0  0  0  0  0  0  0
   46.0130   34.6240   43.5770 C   0  0  0  0  0  0  0  0  0  0  0  0
   46.1100   33.9480   44.7810 C   0  0  0  0  0  0  0  0  0  0  0  0
   45.3350   34.3390   45.8210 N   0  0  0  0  0  0  0  0  0  0  0  0
   44.4660   35.3690   45.7270 C   0  0  0  0  0  0  0  0  0  0  0  0
   44.3470   36.0450   44.5760 N   0  0  0  0  0  0  0  0  0  0  0  0
   46.7330   34.3580   42.3990 N   0  0  0  0  0  0  0  0  0  0  0  0
   47.9340   35.0780   42.0080 C   0  0  0  0  0  0  0  0  0  0  0  0
   48.5280   34.4620   40.7710 C   0  0  0  0  0  0  0  0  0  0  0  0
   47.5830   34.2930   39.7080 N   0  0  0  0  0  0  0  0  0  0  0  0
   46.3440   33.6670   40.0790 C   0  0  0  0  0  0  0  0  0  0  0  0
   46.2330   33.2910   41.5210 C   0  0  0  0  0  0  0  0  0  0  0  0
   47.0160   32.9030   44.8120 O   0  0  0  0  0  0  0  0  0  0  0  0
   45.5030   30.7430   44.5880 O   0  0  0  0  0  0  0  0  0  0  0  0
   46.5360   31.3990   45.5240 P   0  0  1  0  0  0  0  0  0  0  0  0
   47.8880   30.4610   45.7260 O   0  0  0  0  0  0  0  0  0  0  0  0
   48.4350   29.9870   44.5380 C   0  0  0  0  0  0  0  0  0  0  0  0
   45.7650   31.7820   46.9750 O   0  0  0  0  0  0  0  0  0  0  0  0
   46.6440   31.9270   48.0180 C   0  0  0  0  0  0  0  0  0  0  0  0
   47.7110   32.7500   47.7200 F   0  0  0  0  0  0  0  0  0  0  0  0
   47.1190   30.7610   48.5460 F   0  0  0  0  0  0  0  0  0  0  0  0
   45.9160   32.5570   49.0340 F   0  0  0  0  0  0  0  0  0  0  0  0
   44.9853   36.2708   42.5513 H   0  0  0  0  0  0  0  0  0  0  0  0
   43.8552   35.6533   46.5965 H   0  0  0  0  0  0  0  0  0  0  0  0
   47.6781   36.1282   41.8042 H   0  0  0  0  0  0  0  0  0  0  0  0
   48.6683   35.0227   42.8252 H   0  0  0  0  0  0  0  0  0  0  0  0
   49.3411   35.1114   40.4144 H   0  0  0  0  0  0  0  0  0  0  0  0
   48.8866   33.4597   41.0482 H   0  0  0  0  0  0  0  0  0  0  0  0
   48.0250   33.7155   38.9786 H   0  0  0  0  0  0  0  0  0  0  0  0
   45.5259   34.3639   39.8442 H   0  0  0  0  0  0  0  0  0  0  0  0
   46.2930   32.7262   39.5113 H   0  0  0  0  0  0  0  0  0  0  0  0
   45.1765   33.0986   41.7593 H   0  0  0  0  0  0  0  0  0  0  0  0
   46.8442   32.3922   41.6899 H   0  0  0  0  0  0  0  0  0  0  0  0
   49.2485   29.2821   44.7645 H   0  0  0  0  0  0  0  0  0  0  0  0
   47.6563   29.4733   43.9551 H   0  0  0  0  0  0  0  0  0  0  0  0
   48.8327   30.8308   43.9551 H   0  0  0  0  0  0  0  0  0  0  0  0
  1  2  2  0
  1  6  1  0
  2  3  1  0
  3 13  1  0
  3  4  2  0
  5  4  1  0
  6  5  2  0
  7  2  1  0
  8  7  1  0
  9  8  1  0
 10 11  1  0
 10  9  1  0
 11 12  1  0
 12  7  1  0
 13 15  1  0
 15 14  2  0
 15 16  1  0
 15 18  1  0
 17 16  1  0
 18 19  1  0
 19 21  1  0
 19 22  1  0
 20 19  1  0
  1 23  1  0
  5 24  1  0
  8 25  1  0
  8 26  1  0
  9 27  1  0
  9 28  1  0
 10 29  1  0
 11 30  1  0
 11 31  1  0
 12 32  1  0
 12 33  1  0
 17 34  1  0
 17 35  1  0
 17 36  1  0
M  ISO  8  23  14  24  14  25  13  26  13  27  13  28  13  29   5  30  13
M  ISO  6  31  13  32  13  33  13  34   8  35   8  36   8
M  END
>  <minimizedAffinity>  (1) 
-4.92539072

>  <minimizedRMSD>  (1) 
0.296181053

$$$$
