
     RDKit          3D

 29 31  0  0  1  0  0  0  0  0999 V2000
   47.4200   33.0810   44.1370 C   0  0  1  0  0  0  0  0  0  0  0  0
   47.7560   32.0360   43.1690 C   0  0  0  0  0  0  0  0  0  0  0  0
   46.6370   32.9750   42.8460 C   0  0  2  0  0  0  0  0  0  0  0  0
   47.0170   31.5270   46.0740 C   0  0  0  0  0  0  0  0  0  0  0  0
   46.7500   32.7240   45.4040 C   0  0  0  0  0  0  0  0  0  0  0  0
   45.8220   33.5890   45.9720 C   0  0  0  0  0  0  0  0  0  0  0  0
   45.2070   33.2400   47.1570 N   0  0  0  0  0  0  0  0  0  0  0  0
   45.4910   32.0690   47.7790 C   0  0  0  0  0  0  0  0  0  0  0  0
   46.3990   31.2090   47.2350 N   0  0  0  0  0  0  0  0  0  0  0  0
   46.8770   33.8760   41.7640 N   0  0  0  0  0  0  0  0  0  0  0  0
   47.5760   33.3010   40.6430 C   0  0  0  0  0  0  0  0  0  0  0  0
   48.1160   34.5070   39.8630 C   0  0  0  0  0  0  0  0  0  0  0  0
   48.5730   35.3690   41.0250 C   0  0  0  0  0  0  0  0  0  0  0  0
   47.5110   35.1080   42.0960 C   0  0  0  0  0  0  0  0  0  0  0  0
   47.9920   33.8724   44.6435 H   0  0  0  0  0  0  0  0  0  0  0  0
   48.6990   32.0965   42.6059 H   0  0  0  0  0  0  0  0  0  0  0  0
   47.8503   30.9413   43.2211 H   0  0  0  0  0  0  0  0  0  0  0  0
   45.5634   32.9202   42.6128 H   0  0  0  0  0  0  0  0  0  0  0  0
   47.7484   30.8253   45.6466 H   0  0  0  0  0  0  0  0  0  0  0  0
   45.5800   34.5433   45.4813 H   0  0  0  0  0  0  0  0  0  0  0  0
   44.9885   31.8125   48.7233 H   0  0  0  0  0  0  0  0  0  0  0  0
   48.4012   32.6602   40.9872 H   0  0  0  0  0  0  0  0  0  0  0  0
   46.9239   32.6642   40.0272 H   0  0  0  0  0  0  0  0  0  0  0  0
   48.9518   34.2292   39.2040 H   0  0  0  0  0  0  0  0  0  0  0  0
   47.3979   34.9834   39.1793 H   0  0  0  0  0  0  0  0  0  0  0  0
   49.5696   35.0621   41.3752 H   0  0  0  0  0  0  0  0  0  0  0  0
   48.6661   36.4329   40.7613 H   0  0  0  0  0  0  0  0  0  0  0  0
   46.7724   35.9231   42.1019 H   0  0  0  0  0  0  0  0  0  0  0  0
   47.9667   35.0575   43.0959 H   0  0  0  0  0  0  0  0  0  0  0  0
  1  5  1  0
  2  1  1  0
  3  2  1  0
  3  1  1  0
  4  9  2  0
  5  6  2  0
  5  4  1  0
  6  7  1  0
  7  8  2  0
  9  8  1  0
 10 11  1  0
 10 14  1  0
 10  3  1  0
 12 11  1  0
 12 13  1  0
 13 14  1  0
  1 15  1  1
  2 16  1  0
  2 17  1  0
  3 18  1  1
  4 19  1  0
  6 20  1  0
  8 21  1  0
 11 22  1  0
 11 23  1  0
 12 24  1  0
 12 25  1  0
 13 26  1  0
 13 27  1  0
 14 28  1  0
 14 29  1  0
M  ISO  8  15  13  16  13  17  13  18  13  19  14  20  14  21  14  22  13
M  ISO  7  23  13  24  13  25  13  26  13  27  13  28  13  29  13
M  END
>  <minimizedAffinity>  (1) 
-4.01757097

>  <minimizedRMSD>  (1) 
4.03563929

$$$$
