
     RDKit          3D

 18 19  0  0  1  0  0  0  0  0999 V2000
   46.2470   35.4610   42.7630 C   0  0  0  0  0  0  0  0  0  0  0  0
   47.1810   34.4670   43.0730 C   0  0  0  0  0  0  0  0  0  0  0  0
   46.9200   33.6660   44.1730 C   0  0  0  0  0  0  0  0  0  0  0  0
   45.7730   33.8730   44.9080 N   0  0  0  0  0  0  0  0  0  0  0  0
   44.8920   34.8420   44.5810 C   0  0  0  0  0  0  0  0  0  0  0  0
   45.1290   35.6420   43.5020 N   0  0  0  0  0  0  0  0  0  0  0  0
   48.3850   34.2680   42.2490 C   0  0  1  0  0  0  0  0  0  0  0  0
   48.9210   35.3800   41.4550 C   0  0  0  0  0  0  0  0  0  0  0  0
   49.6760   34.9330   42.6640 C   0  0  2  0  0  0  0  0  0  0  0  0
   50.8310   34.2330   42.3200 O   0  0  0  0  0  0  0  0  0  0  0  0
   46.4266   36.1127   41.8952 H   0  0  0  0  0  0  0  0  0  0  0  0
   47.6238   32.8700   44.4577 H   0  0  0  0  0  0  0  0  0  0  0  0
   43.9836   34.9864   45.1843 H   0  0  0  0  0  0  0  0  0  0  0  0
   48.0740   33.2375   42.0222 H   0  0  0  0  0  0  0  0  0  0  0  0
   49.3313   35.1876   40.4527 H   0  0  0  0  0  0  0  0  0  0  0  0
   48.5191   36.3445   41.1112 H   0  0  0  0  0  0  0  0  0  0  0  0
   50.0481   35.3835   43.5960 H   0  0  0  0  0  0  0  0  0  0  0  0
   51.3015   33.9478   43.1431 H   0  0  0  0  0  0  0  0  0  0  0  0
  1  2  2  0
  1  6  1  0
  2  3  1  0
  3  4  2  0
  5  4  1  0
  6  5  2  0
  7  9  1  0
  7  2  1  0
  8  7  1  0
  8  9  1  0
 10  9  1  0
  1 11  1  0
  3 12  1  0
  5 13  1  0
  7 14  1  6
  8 15  1  0
  8 16  1  0
  9 17  1  1
 10 18  1  0
M  ISO  8  11  14  12  14  13  14  14  13  15  13  16  13  17  13  18   3
M  END
>  <minimizedAffinity>  (1) 
-3.99643612

>  <minimizedRMSD>  (1) 
0.30659312

$$$$
