
     RDKit          3D

 23 24  0  0  1  0  0  0  0  0999 V2000
   46.6210   33.5730   41.9540 C   0  0  1  0  0  0  0  0  0  0  0  0
   46.9070   34.2740   40.7020 C   0  0  0  0  0  0  0  0  0  0  0  0
   48.0270   33.9430   41.6130 C   0  0  1  0  0  0  0  0  0  0  0  0
   45.3410   35.5550   42.8770 C   0  0  0  0  0  0  0  0  0  0  0  0
   45.9260   34.2770   43.0670 C   0  0  0  0  0  0  0  0  0  0  0  0
   45.8390   33.7050   44.3350 C   0  0  0  0  0  0  0  0  0  0  0  0
   45.2000   34.4070   45.3080 N   0  0  0  0  0  0  0  0  0  0  0  0
   44.6530   35.6110   45.1170 C   0  0  0  0  0  0  0  0  0  0  0  0
   44.7270   36.1860   43.8830 N   0  0  0  0  0  0  0  0  0  0  0  0
   48.8340   34.9250   42.3620 C   0  0  0  0  0  0  0  0  0  0  0  0
   49.2360   36.1670   41.6290 C   0  0  0  0  0  0  0  0  0  0  0  0
   46.0999   32.6403   42.2157 H   0  0  0  0  0  0  0  0  0  0  0  0
   46.5941   35.3212   40.5772 H   0  0  0  0  0  0  0  0  0  0  0  0
   46.6911   34.0791   39.6412 H   0  0  0  0  0  0  0  0  0  0  0  0
   48.9838   33.4097   41.5124 H   0  0  0  0  0  0  0  0  0  0  0  0
   45.3932   36.0337   41.8880 H   0  0  0  0  0  0  0  0  0  0  0  0
   46.2740   32.7161   44.5420 H   0  0  0  0  0  0  0  0  0  0  0  0
   44.1494   36.1317   45.9448 H   0  0  0  0  0  0  0  0  0  0  0  0
   48.2512   35.2322   43.2429 H   0  0  0  0  0  0  0  0  0  0  0  0
   49.7773   34.4077   42.5913 H   0  0  0  0  0  0  0  0  0  0  0  0
   49.4908   36.9543   42.3538 H   0  0  0  0  0  0  0  0  0  0  0  0
   50.1108   35.9531   40.9973 H   0  0  0  0  0  0  0  0  0  0  0  0
   48.4018   36.5062   40.9973 H   0  0  0  0  0  0  0  0  0  0  0  0
  1  5  1  0
  2  3  1  0
  2  1  1  0
  3  1  1  0
  3 10  1  0
  4  5  2  0
  4  9  1  0
  5  6  1  0
  6  7  2  0
  8  7  1  0
  9  8  2  0
 11 10  1  0
  1 12  1  6
  2 13  1  0
  2 14  1  0
  3 15  1  6
  4 16  1  0
  6 17  1  0
  8 18  1  0
 10 19  1  0
 10 20  1  0
 11 21  1  0
 11 22  1  0
 11 23  1  0
M  ISO  8  12  13  13  13  14  13  15  13  16  14  17  14  18  14  19   8
M  ISO  4  20   8  21   8  22   8  23   8
M  END
>  <minimizedAffinity>  (1) 
-3.95471334

>  <minimizedRMSD>  (1) 
1.81371176

$$$$
