
     RDKit          3D

 20 21  0  0  1  0  0  0  0  0999 V2000
   47.4660   33.2720   41.3820 C   0  0  1  0  0  0  0  0  0  0  0  0
   47.1260   34.1390   40.2520 C   0  0  0  0  0  0  0  0  0  0  0  0
   48.4660   34.2920   40.8990 C   0  0  1  0  0  0  0  0  0  0  0  0
   45.5420   34.1370   42.8160 C   0  0  0  0  0  0  0  0  0  0  0  0
   46.8040   33.4920   42.6970 C   0  0  0  0  0  0  0  0  0  0  0  0
   47.4230   33.0730   43.8740 C   0  0  0  0  0  0  0  0  0  0  0  0
   46.7960   33.2990   45.0560 N   0  0  0  0  0  0  0  0  0  0  0  0
   45.6070   33.9080   45.1400 C   0  0  0  0  0  0  0  0  0  0  0  0
   44.9990   34.3180   44.0130 N   0  0  0  0  0  0  0  0  0  0  0  0
   48.7520   35.5110   41.7180 C   0  0  0  0  0  0  0  0  0  0  0  0
   49.3830   36.5040   40.9910 F   0  0  0  0  0  0  0  0  0  0  0  0
   49.5380   35.2130   42.8280 F   0  0  0  0  0  0  0  0  0  0  0  0
   47.5570   36.0320   42.1610 F   0  0  0  0  0  0  0  0  0  0  0  0
   47.4765   32.1838   41.5423 H   0  0  0  0  0  0  0  0  0  0  0  0
   46.3665   34.9251   40.3754 H   0  0  0  0  0  0  0  0  0  0  0  0
   46.7835   33.9630   39.2216 H   0  0  0  0  0  0  0  0  0  0  0  0
   49.5139   34.2644   40.5656 H   0  0  0  0  0  0  0  0  0  0  0  0
   45.0159   34.4860   41.9152 H   0  0  0  0  0  0  0  0  0  0  0  0
   48.4004   32.5691   43.8450 H   0  0  0  0  0  0  0  0  0  0  0  0
   45.1330   34.0711   46.1192 H   0  0  0  0  0  0  0  0  0  0  0  0
  1  5  1  0
  2  3  1  0
  2  1  1  0
  3  1  1  0
  3 10  1  0
  4  9  2  0
  5  4  1  0
  5  6  2  0
  6  7  1  0
  7  8  2  0
  9  8  1  0
 10 13  1  0
 10 12  1  0
 11 10  1  0
  1 14  1  6
  2 15  1  0
  2 16  1  0
  3 17  1  6
  4 18  1  0
  6 19  1  0
  8 20  1  0
M  ISO  7  14  13  15  13  16  13  17  13  18  14  19  14  20  14
M  END
>  <minimizedAffinity>  (1) 
-4.29132652

>  <minimizedRMSD>  (1) 
1.87808788

$$$$
