
     RDKit          3D

 28 30  0  0  1  0  0  0  0  0999 V2000
   45.7920   33.8350   42.9980 C   0  0  0  0  0  0  0  0  0  0  0  0
   47.0180   33.1850   42.5940 C   0  0  0  0  0  0  0  0  0  0  0  0
   47.7490   32.5710   43.5750 C   0  0  0  0  0  0  0  0  0  0  0  0
   47.3090   32.5930   44.8560 N   0  0  0  0  0  0  0  0  0  0  0  0
   46.1530   33.2130   45.2030 C   0  0  0  0  0  0  0  0  0  0  0  0
   45.4070   33.8270   44.2650 N   0  0  0  0  0  0  0  0  0  0  0  0
   47.4740   33.1950   41.1800 C   0  0  1  0  0  0  0  0  0  0  0  0
   46.9720   34.1440   40.2360 C   0  0  0  0  0  0  0  0  0  0  0  0
   48.3410   34.3860   40.7260 C   0  0  1  0  0  0  0  0  0  0  0  0
   48.6970   35.4640   41.6720 C   0  0  0  0  0  0  0  0  0  0  0  0
   49.3540   36.5100   41.0440 F   0  0  0  0  0  0  0  0  0  0  0  0
   49.4920   34.9920   42.7150 F   0  0  0  0  0  0  0  0  0  0  0  0
   47.5230   35.9750   42.1750 F   0  0  0  0  0  0  0  0  0  0  0  0
   45.7460   33.1830   46.6360 C   0  0  2  0  0  0  0  0  0  0  0  0
   46.7680   32.5160   47.5390 C   0  0  0  0  0  0  0  0  0  0  0  0
   45.4260   31.8870   47.2970 C   0  0  1  0  0  0  0  0  0  0  0  0
   44.4360   31.9860   48.2870 O   0  0  0  0  0  0  0  0  0  0  0  0
   45.1716   34.3422   42.2444 H   0  0  0  0  0  0  0  0  0  0  0  0
   48.6909   32.0613   43.3239 H   0  0  0  0  0  0  0  0  0  0  0  0
   47.5474   32.0975   41.1824 H   0  0  0  0  0  0  0  0  0  0  0  0
   46.1639   34.8269   40.5371 H   0  0  0  0  0  0  0  0  0  0  0  0
   46.5387   34.0477   39.2295 H   0  0  0  0  0  0  0  0  0  0  0  0
   49.3211   34.5485   40.2539 H   0  0  0  0  0  0  0  0  0  0  0  0
   45.2039   34.1384   46.5791 H   0  0  0  0  0  0  0  0  0  0  0  0
   47.6748   32.0657   47.1089 H   0  0  0  0  0  0  0  0  0  0  0  0
   47.3429   32.8171   48.4271 H   0  0  0  0  0  0  0  0  0  0  0  0
   45.1263   30.8764   46.9827 H   0  0  0  0  0  0  0  0  0  0  0  0
   44.8583   31.9438   49.1814 H   0  0  0  0  0  0  0  0  0  0  0  0
  1  6  2  0
  2  1  1  0
  2  3  2  0
  3  4  1  0
  4  5  2  0
  5 14  1  0
  6  5  1  0
  7  2  1  0
  8  9  1  0
  8  7  1  0
  9  7  1  0
  9 10  1  0
 10 13  1  0
 10 12  1  0
 11 10  1  0
 14 16  1  0
 14 15  1  0
 16 15  1  0
 16 17  1  0
  1 18  1  0
  3 19  1  0
  7 20  1  6
  8 21  1  0
  8 22  1  0
  9 23  1  6
 14 24  1  1
 15 25  1  0
 15 26  1  0
 16 27  1  6
 17 28  1  0
M  ISO  8  18  14  19  14  20  13  21  13  22  13  23  13  24  13  25  13
M  ISO  3  26  13  27  13  28   3
M  END
>  <minimizedAffinity>  (1) 
-5.34766483

>  <minimizedRMSD>  (1) 
0.213643983

$$$$
