
     RDKit          3D

 42 45  0  0  1  0  0  0  0  0999 V2000
   46.2650   33.0950   42.2910 C   0  0  0  0  0  0  0  0  0  0  0  0
   47.6350   32.7990   41.9400 C   0  0  0  0  0  0  0  0  0  0  0  0
   48.3710   32.0860   42.8490 C   0  0  0  0  0  0  0  0  0  0  0  0
   47.8040   31.6960   44.0170 N   0  0  0  0  0  0  0  0  0  0  0  0
   46.5140   31.9910   44.3180 C   0  0  0  0  0  0  0  0  0  0  0  0
   45.7590   32.6890   43.4460 N   0  0  0  0  0  0  0  0  0  0  0  0
   48.2160   33.2610   40.6590 C   0  0  1  0  0  0  0  0  0  0  0  0
   47.6100   34.2890   39.8730 C   0  0  0  0  0  0  0  0  0  0  0  0
   48.8180   34.6800   40.6220 C   0  0  1  0  0  0  0  0  0  0  0  0
   48.7930   35.5400   41.8280 C   0  0  0  0  0  0  0  0  0  0  0  0
   49.3960   36.7650   41.6020 F   0  0  0  0  0  0  0  0  0  0  0  0
   49.4210   34.9200   42.9090 F   0  0  0  0  0  0  0  0  0  0  0  0
   47.4780   35.7890   42.1310 F   0  0  0  0  0  0  0  0  0  0  0  0
   45.9760   31.5200   45.6200 C   0  0  2  0  0  0  0  0  0  0  0  0
   47.0120   30.8500   46.5000 C   0  0  0  0  0  0  0  0  0  0  0  0
   45.8970   30.0600   45.9170 C   0  0  1  0  0  0  0  0  0  0  0  0
   44.7980   29.5360   46.6250 N   0  0  0  0  0  0  0  0  0  0  0  0
   43.7770   28.8520   45.9540 C   0  0  0  0  0  0  0  0  0  0  0  0
   43.7450   27.3630   46.1310 C   0  0  0  0  0  0  0  0  0  0  0  0
   44.4220   26.8540   47.3450 C   0  0  0  0  0  0  0  0  0  0  0  0
   45.5550   27.6570   47.8770 C   0  0  0  0  0  0  0  0  0  0  0  0
   45.1300   29.1030   47.9380 C   0  0  0  0  0  0  0  0  0  0  0  0
   45.6351   33.6639   41.5913 H   0  0  0  0  0  0  0  0  0  0  0  0
   49.4187   31.8307   42.6319 H   0  0  0  0  0  0  0  0  0  0  0  0
   48.5450   32.2357   40.4342 H   0  0  0  0  0  0  0  0  0  0  0  0
   46.6336   34.6940   40.1772 H   0  0  0  0  0  0  0  0  0  0  0  0
   47.3271   34.3573   38.8122 H   0  0  0  0  0  0  0  0  0  0  0  0
   49.7770   35.1530   40.3640 H   0  0  0  0  0  0  0  0  0  0  0  0
   45.2418   32.3360   45.6916 H   0  0  0  0  0  0  0  0  0  0  0  0
   48.0390   30.7084   46.1322 H   0  0  0  0  0  0  0  0  0  0  0  0
   47.4006   31.0195   47.5150 H   0  0  0  0  0  0  0  0  0  0  0  0
   45.8779   29.1217   45.3432 H   0  0  0  0  0  0  0  0  0  0  0  0
   43.8854   29.0592   44.8791 H   0  0  0  0  0  0  0  0  0  0  0  0
   42.8391   29.2195   46.3959 H   0  0  0  0  0  0  0  0  0  0  0  0
   42.6917   27.0486   46.1726 H   0  0  0  0  0  0  0  0  0  0  0  0
   44.2976   26.9440   45.2772 H   0  0  0  0  0  0  0  0  0  0  0  0
   43.6655   26.7813   48.1402 H   0  0  0  0  0  0  0  0  0  0  0  0
   44.8705   25.8970   47.0401 H   0  0  0  0  0  0  0  0  0  0  0  0
   45.8181   27.3048   48.8853 H   0  0  0  0  0  0  0  0  0  0  0  0
   46.4329   27.5495   47.2229 H   0  0  0  0  0  0  0  0  0  0  0  0
   45.9547   29.7150   48.3322 H   0  0  0  0  0  0  0  0  0  0  0  0
   44.2579   29.2099   48.5998 H   0  0  0  0  0  0  0  0  0  0  0  0
  1  6  2  0
  2  1  1  0
  2  3  2  0
  3  4  1  0
  4  5  2  0
  5 14  1  0
  6  5  1  0
  7  2  1  0
  8  9  1  0
  8  7  1  0
  9  7  1  0
  9 10  1  0
 10 13  1  0
 10 12  1  0
 11 10  1  0
 14 16  1  0
 14 15  1  0
 16 15  1  0
 16 17  1  0
 17 22  1  0
 18 19  1  0
 18 17  1  0
 19 20  1  0
 20 21  1  0
 21 22  1  0
  1 23  1  0
  3 24  1  0
  7 25  1  6
  8 26  1  0
  8 27  1  0
  9 28  1  6
 14 29  1  1
 15 30  1  0
 15 31  1  0
 16 32  1  6
 18 33  1  0
 18 34  1  0
 19 35  1  0
 19 36  1  0
 20 37  1  0
 20 38  1  0
 21 39  1  0
 21 40  1  0
 22 41  1  0
 22 42  1  0
M  ISO  8  23  14  24  14  25  13  26  13  27  13  28  13  29  13  30  13
M  ISO  8  31  13  32  13  33  13  34  13  35  13  36  13  37  13  38  13
M  ISO  4  39  13  40  13  41  13  42  13
M  END
>  <minimizedAffinity>  (1) 
-5.01864815

>  <minimizedRMSD>  (1) 
1.93091333

$$$$
