
     RDKit          3D

 41 44  0  0  1  0  0  0  0  0999 V2000
   46.3130   33.1310   42.1420 C   0  0  0  0  0  0  0  0  0  0  0  0
   47.6900   32.8460   41.8510 C   0  0  0  0  0  0  0  0  0  0  0  0
   48.3890   32.1180   42.7790 C   0  0  0  0  0  0  0  0  0  0  0  0
   47.7700   31.7020   43.9120 N   0  0  0  0  0  0  0  0  0  0  0  0
   46.4680   31.9900   44.1550 C   0  0  0  0  0  0  0  0  0  0  0  0
   45.7550   32.7040   43.2620 N   0  0  0  0  0  0  0  0  0  0  0  0
   48.3330   33.3350   40.6090 C   0  0  1  0  0  0  0  0  0  0  0  0
   47.7550   34.3730   39.8110 C   0  0  0  0  0  0  0  0  0  0  0  0
   48.9250   34.7570   40.6210 C   0  0  1  0  0  0  0  0  0  0  0  0
   48.8410   35.5950   41.8400 C   0  0  0  0  0  0  0  0  0  0  0  0
   49.4130   36.8410   41.6500 F   0  0  0  0  0  0  0  0  0  0  0  0
   49.4530   34.9770   42.9350 F   0  0  0  0  0  0  0  0  0  0  0  0
   47.5090   35.7970   42.1090 F   0  0  0  0  0  0  0  0  0  0  0  0
   45.8650   31.4900   45.4260 C   0  0  2  0  0  0  0  0  0  0  0  0
   46.8930   31.0840   46.4600 C   0  0  0  0  0  0  0  0  0  0  0  0
   46.0140   30.0560   45.8020 C   0  0  1  0  0  0  0  0  0  0  0  0
   45.0290   29.3540   46.5400 N   0  0  0  0  0  0  0  0  0  0  0  0
   44.1180   28.5800   45.7600 C   0  0  0  0  0  0  0  0  0  0  0  0
   43.5270   27.3770   46.3770 C   0  0  0  0  0  0  0  0  0  0  0  0
   44.2300   26.7900   47.4550 N   0  0  0  0  0  0  0  0  0  0  0  0
   45.5490   27.3230   47.6840 C   0  0  0  0  0  0  0  0  0  0  0  0
   45.3820   28.8200   47.7980 C   0  0  0  0  0  0  0  0  0  0  0  0
   45.7150   33.7117   41.4242 H   0  0  0  0  0  0  0  0  0  0  0  0
   49.4471   31.8724   42.6055 H   0  0  0  0  0  0  0  0  0  0  0  0
   48.6834   32.3164   40.3861 H   0  0  0  0  0  0  0  0  0  0  0  0
   47.8498   34.3266   38.7161 H   0  0  0  0  0  0  0  0  0  0  0  0
   46.7352   34.7757   39.7222 H   0  0  0  0  0  0  0  0  0  0  0  0
   49.8910   35.2405   40.4134 H   0  0  0  0  0  0  0  0  0  0  0  0
   44.9894   32.1530   45.3637 H   0  0  0  0  0  0  0  0  0  0  0  0
   47.9655   31.1288   46.2197 H   0  0  0  0  0  0  0  0  0  0  0  0
   47.1166   31.3741   47.4973 H   0  0  0  0  0  0  0  0  0  0  0  0
   46.1837   29.1297   45.2336 H   0  0  0  0  0  0  0  0  0  0  0  0
   44.6552   28.2543   44.8571 H   0  0  0  0  0  0  0  0  0  0  0  0
   43.2626   29.2505   45.5906 H   0  0  0  0  0  0  0  0  0  0  0  0
   42.5271   27.6512   46.7445 H   0  0  0  0  0  0  0  0  0  0  0  0
   43.5404   26.6161   45.5827 H   0  0  0  0  0  0  0  0  0  0  0  0
   43.6757   26.9297   48.3118 H   0  0  0  0  0  0  0  0  0  0  0  0
   45.9698   26.9139   48.6143 H   0  0  0  0  0  0  0  0  0  0  0  0
   46.2373   27.0564   46.8684 H   0  0  0  0  0  0  0  0  0  0  0  0
   46.3281   29.2694   48.1341 H   0  0  0  0  0  0  0  0  0  0  0  0
   44.5886   29.0448   48.5260 H   0  0  0  0  0  0  0  0  0  0  0  0
  1  6  2  0
  2  1  1  0
  2  3  2  0
  3  4  1  0
  4  5  2  0
  5 14  1  0
  6  5  1  0
  7  9  1  0
  7  2  1  0
  8  7  1  0
  8  9  1  0
  9 10  1  0
 10 13  1  0
 10 12  1  0
 11 10  1  0
 14 16  1  0
 14 15  1  0
 16 15  1  0
 16 17  1  0
 17 22  1  0
 18 19  1  0
 18 17  1  0
 19 20  1  0
 20 21  1  0
 21 22  1  0
  1 23  1  0
  3 24  1  0
  7 25  1  6
  8 26  1  0
  8 27  1  0
  9 28  1  6
 14 29  1  1
 15 30  1  0
 15 31  1  0
 16 32  1  6
 18 33  1  0
 18 34  1  0
 19 35  1  0
 19 36  1  0
 20 37  1  0
 21 38  1  0
 21 39  1  0
 22 40  1  0
 22 41  1  0
M  ISO  8  23  14  24  14  25  13  26  13  27  13  28  13  29  13  30  13
M  ISO  8  31  13  32  13  33  13  34  13  35  13  36  13  37   5  38  13
M  ISO  3  39  13  40  13  41  13
M  END
>  <minimizedAffinity>  (1) 
-4.75537634

>  <minimizedRMSD>  (1) 
2.16472101

$$$$
