
     RDKit          3D

 26 27  0  0  1  0  0  0  0  0999 V2000
   45.4390   34.0800   45.4410 C   0  0  0  0  0  0  0  0  0  0  0  0
   44.6830   35.2830   45.4530 C   0  0  0  0  0  0  0  0  0  0  0  0
   44.7040   36.0800   44.3020 C   0  0  0  0  0  0  0  0  0  0  0  0
   45.4490   35.6510   43.2430 N   0  0  0  0  0  0  0  0  0  0  0  0
   46.1540   34.5150   43.2540 C   0  0  0  0  0  0  0  0  0  0  0  0
   46.1390   33.7390   44.3600 N   0  0  0  0  0  0  0  0  0  0  0  0
   46.8860   34.1690   42.1090 N   0  0  0  0  0  0  0  0  0  0  0  0
   47.8990   35.0460   41.6160 C   0  0  2  0  0  0  0  0  0  0  0  0
   48.3460   34.7550   40.2240 C   0  0  0  0  0  0  0  0  0  0  0  0
   48.2710   33.3940   39.8020 N   0  0  0  0  0  0  0  0  0  0  0  0
   47.9730   32.4880   40.8940 C   0  0  0  0  0  0  0  0  0  0  0  0
   46.6230   32.9190   41.4190 C   0  0  0  0  0  0  0  0  0  0  0  0
   49.0460   35.0960   42.5840 C   0  0  0  0  0  0  0  0  0  0  0  0
   50.1950   34.6690   42.3980 O   0  0  0  0  0  0  0  0  0  0  0  0
   45.4463   33.4282   46.3271 H   0  0  0  0  0  0  0  0  0  0  0  0
   44.1001   35.5786   46.3378 H   0  0  0  0  0  0  0  0  0  0  0  0
   44.1379   37.0219   44.2533 H   0  0  0  0  0  0  0  0  0  0  0  0
   47.4434   36.0446   41.5438 H   0  0  0  0  0  0  0  0  0  0  0  0
   47.7226   35.3512   39.5414 H   0  0  0  0  0  0  0  0  0  0  0  0
   49.4165   35.0072   40.2036 H   0  0  0  0  0  0  0  0  0  0  0  0
   47.5303   33.3092   39.0913 H   0  0  0  0  0  0  0  0  0  0  0  0
   47.9312   31.4501   40.5320 H   0  0  0  0  0  0  0  0  0  0  0  0
   48.7455   32.5236   41.6763 H   0  0  0  0  0  0  0  0  0  0  0  0
   45.9146   33.0727   40.5916 H   0  0  0  0  0  0  0  0  0  0  0  0
   46.1688   32.1641   42.0777 H   0  0  0  0  0  0  0  0  0  0  0  0
   48.8457   35.5603   43.5609 H   0  0  0  0  0  0  0  0  0  0  0  0
  1  2  2  0
  3  2  1  0
  4  5  1  0
  4  3  2  0
  5  6  2  0
  6  1  1  0
  7  5  1  0
  8  7  1  0
  8 13  1  0
  9  8  1  0
 10  9  1  0
 10 11  1  0
 11 12  1  0
 12  7  1  0
 14 13  2  0
  1 15  1  0
  2 16  1  0
  3 17  1  0
  8 18  1  6
  9 19  1  0
  9 20  1  0
 10 21  1  0
 11 22  1  0
 11 23  1  0
 12 24  1  0
 12 25  1  0
 13 26  1  0
M  ISO  8  15  14  16  14  17  14  18  13  19  13  20  13  21   5  22  13
M  ISO  4  23  13  24  13  25  13  26   6
M  END
>  <minimizedAffinity>  (1) 
-4.36001825

>  <minimizedRMSD>  (1) 
6.14705944

$$$$
