
     RDKit          3D

 44 48  0  0  1  0  0  0  0  0999 V2000
   46.0030   33.3260   45.2950 C   0  0  0  0  0  0  0  0  0  0  0  0
   46.9420   33.4310   44.2360 C   0  0  0  0  0  0  0  0  0  0  0  0
   47.6900   32.2660   43.8890 C   0  0  0  0  0  0  0  0  0  0  0  0
   47.4730   31.1080   44.5830 N   0  0  0  0  0  0  0  0  0  0  0  0
   46.5610   31.0710   45.5870 C   0  0  0  0  0  0  0  0  0  0  0  0
   45.8410   32.1670   45.9320 N   0  0  0  0  0  0  0  0  0  0  0  0
   46.4030   29.8470   46.2460 N   0  0  0  0  0  0  0  0  0  0  0  0
   47.5020   29.2290   46.9120 C   0  0  2  0  0  0  0  0  0  0  0  0
   47.2700   27.8220   47.3370 C   0  0  0  0  0  0  0  0  0  0  0  0
   45.9430   27.4580   47.6570 N   0  0  0  0  0  0  0  0  0  0  0  0
   45.0060   28.5250   47.6050 C   0  0  0  0  0  0  0  0  0  0  0  0
   45.1120   29.1950   46.2590 C   0  0  0  0  0  0  0  0  0  0  0  0
   48.0450   30.0860   48.0000 C   0  0  0  0  0  0  0  0  0  0  0  0
   47.4530   30.9280   48.9080 C   0  0  0  0  0  0  0  0  0  0  0  0
   48.3490   31.4940   49.7220 N   0  0  0  0  0  0  0  0  0  0  0  0
   49.5280   31.0140   49.3390 C   0  0  0  0  0  0  0  0  0  0  0  0
   49.3500   30.1700   48.3080 N   0  0  0  0  0  0  0  0  0  0  0  0
   52.0330   31.2610   49.1100 C   0  0  0  0  0  0  0  0  0  0  0  0
   50.8760   31.2730   49.8640 C   0  0  0  0  0  0  0  0  0  0  0  0
   50.9850   31.5490   51.2110 C   0  0  0  0  0  0  0  0  0  0  0  0
   52.2000   31.8090   51.8150 C   0  0  0  0  0  0  0  0  0  0  0  0
   53.3700   31.7970   51.0570 C   0  0  0  0  0  0  0  0  0  0  0  0
   53.2490   31.5200   49.7100 C   0  0  0  0  0  0  0  0  0  0  0  0
   54.4590   32.0880   51.8960 O   0  0  0  0  0  0  0  0  0  0  0  0
   53.9770   31.7390   53.2010 C   0  0  0  0  0  0  0  0  0  0  0  0
   52.6130   32.1110   53.1140 O   0  0  0  0  0  0  0  0  0  0  0  0
   45.4080   34.2028   45.5904 H   0  0  0  0  0  0  0  0  0  0  0  0
   47.0887   34.3801   43.6997 H   0  0  0  0  0  0  0  0  0  0  0  0
   48.4298   32.2992   43.0756 H   0  0  0  0  0  0  0  0  0  0  0  0
   48.2854   29.1399   46.1449 H   0  0  0  0  0  0  0  0  0  0  0  0
   47.6047   27.1687   46.5178 H   0  0  0  0  0  0  0  0  0  0  0  0
   47.8304   27.7121   48.2772 H   0  0  0  0  0  0  0  0  0  0  0  0
   45.6401   26.7322   46.9919 H   0  0  0  0  0  0  0  0  0  0  0  0
   43.9883   28.1312   47.7435 H   0  0  0  0  0  0  0  0  0  0  0  0
   45.2196   29.2510   48.4033 H   0  0  0  0  0  0  0  0  0  0  0  0
   44.3076   29.9349   46.1346 H   0  0  0  0  0  0  0  0  0  0  0  0
   45.0150   28.4709   45.4367 H   0  0  0  0  0  0  0  0  0  0  0  0
   46.3702   31.1146   48.9595 H   0  0  0  0  0  0  0  0  0  0  0  0
   48.1650   32.1611   50.4849 H   0  0  0  0  0  0  0  0  0  0  0  0
   51.9857   31.0453   48.0324 H   0  0  0  0  0  0  0  0  0  0  0  0
   50.0729   31.5626   51.8257 H   0  0  0  0  0  0  0  0  0  0  0  0
   54.1576   31.5051   49.0902 H   0  0  0  0  0  0  0  0  0  0  0  0
   54.0870   30.6616   53.3939 H   0  0  0  0  0  0  0  0  0  0  0  0
   54.5210   32.2278   54.0227 H   0  0  0  0  0  0  0  0  0  0  0  0
  1  6  2  0
  2  1  1  0
  3  2  2  0
  3  4  1  0
  4  5  2  0
  5  6  1  0
  5  7  1  0
  7 12  1  0
  7  8  1  0
  8  9  1  0
  8 13  1  0
  9 10  1  0
 11 10  1  0
 12 11  1  0
 13 17  1  0
 13 14  2  0
 14 15  1  0
 16 15  1  0
 16 19  1  0
 17 16  2  0
 18 23  2  0
 18 19  1  0
 19 20  2  0
 20 21  1  0
 21 26  1  0
 22 21  2  0
 22 24  1  0
 23 22  1  0
 24 25  1  0
 26 25  1  0
  1 27  1  0
  2 28  1  0
  3 29  1  0
  8 30  1  6
  9 31  1  0
  9 32  1  0
 10 33  1  0
 11 34  1  0
 11 35  1  0
 12 36  1  0
 12 37  1  0
 14 38  1  0
 15 39  1  0
 18 40  1  0
 20 41  1  0
 23 42  1  0
 25 43  1  0
 25 44  1  0
M  ISO  8  27  14  28  14  29  14  30  13  31  13  32  13  33   5  34  13
M  ISO  8  35  13  36  13  37  13  38  14  39   9  40  14  41  14  42  14
M  ISO  2  43  13  44  13
M  END
>  <minimizedAffinity>  (1) 
-5.44029188

>  <minimizedRMSD>  (1) 
0.859609365

$$$$
