
     RDKit          3D

 22 23  0  0  1  0  0  0  0  0999 V2000
   46.3140   32.4050   46.5670 C   0  0  1  0  0  0  0  0  0  0  0  0
   47.2230   32.6860   47.7240 C   0  0  0  0  0  0  0  0  0  0  0  0
   45.7420   32.3240   47.9150 C   0  0  2  0  0  0  0  0  0  0  0  0
   44.6020   35.3840   45.1970 C   0  0  0  0  0  0  0  0  0  0  0  0
   45.1900   35.4950   43.8880 C   0  0  0  0  0  0  0  0  0  0  0  0
   46.1780   34.5200   43.5370 C   0  0  0  0  0  0  0  0  0  0  0  0
   46.5110   33.5660   44.4130 N   0  0  0  0  0  0  0  0  0  0  0  0
   45.9230   33.5040   45.6450 C   0  0  0  0  0  0  0  0  0  0  0  0
   44.9910   34.4000   46.0150 N   0  0  0  0  0  0  0  0  0  0  0  0
   45.4740   31.0800   48.5600 N   0  0  0  0  0  0  0  0  0  0  0  0
   44.9590   30.1680   47.5330 C   0  0  0  0  0  0  0  0  0  0  0  0
   46.3508   31.7113   45.7141 H   0  0  0  0  0  0  0  0  0  0  0  0
   48.0106   31.9691   47.9992 H   0  0  0  0  0  0  0  0  0  0  0  0
   47.8806   33.5130   48.0301 H   0  0  0  0  0  0  0  0  0  0  0  0
   44.8455   32.7708   48.3696 H   0  0  0  0  0  0  0  0  0  0  0  0
   43.8371   36.1043   45.5227 H   0  0  0  0  0  0  0  0  0  0  0  0
   44.8941   36.2918   43.1898 H   0  0  0  0  0  0  0  0  0  0  0  0
   46.6617   34.5555   42.5497 H   0  0  0  0  0  0  0  0  0  0  0  0
   46.3394   30.6998   48.9692 H   0  0  0  0  0  0  0  0  0  0  0  0
   44.4732   29.3078   48.0168 H   0  0  0  0  0  0  0  0  0  0  0  0
   44.2267   30.6978   46.9060 H   0  0  0  0  0  0  0  0  0  0  0  0
   45.7909   29.8145   46.9060 H   0  0  0  0  0  0  0  0  0  0  0  0
  1  2  1  0
  1  3  1  0
  2  3  1  0
  3 10  1  0
  4  9  2  0
  5  4  1  0
  6  5  2  0
  6  7  1  0
  7  8  2  0
  8  9  1  0
  8  1  1  0
 11 10  1  0
  1 12  1  6
  2 13  1  0
  2 14  1  0
  3 15  1  6
  4 16  1  0
  5 17  1  0
  6 18  1  0
 10 19  1  0
 11 20  1  0
 11 21  1  0
 11 22  1  0
M  ISO  8  12  13  13  13  14  13  15  13  16  14  17  14  18  14  19   5
M  ISO  3  20   8  21   8  22   8
M  END
>  <minimizedAffinity>  (1) 
-3.60860133

>  <minimizedRMSD>  (1) 
0.986279488

$$$$
