
     RDKit          3D

 33 35  0  0  1  0  0  0  0  0999 V2000
   45.9340   33.5130   45.8340 C   0  0  0  0  0  0  0  0  0  0  0  0
   46.6790   33.6270   44.6430 C   0  0  0  0  0  0  0  0  0  0  0  0
   47.2820   32.4430   44.1240 C   0  0  0  0  0  0  0  0  0  0  0  0
   47.1120   31.2640   44.7970 N   0  0  0  0  0  0  0  0  0  0  0  0
   46.3840   31.2210   45.9370 C   0  0  0  0  0  0  0  0  0  0  0  0
   45.8040   32.3370   46.4430 N   0  0  0  0  0  0  0  0  0  0  0  0
   46.2650   29.9720   46.5580 N   0  0  0  0  0  0  0  0  0  0  0  0
   47.4220   29.2640   46.9970 C   0  0  2  0  0  0  0  0  0  0  0  0
   47.1720   27.8520   47.3980 C   0  0  0  0  0  0  0  0  0  0  0  0
   45.8960   27.5400   47.9150 N   0  0  0  0  0  0  0  0  0  0  0  0
   45.0290   28.6540   48.0630 C   0  0  0  0  0  0  0  0  0  0  0  0
   44.9530   29.3930   46.7580 C   0  0  0  0  0  0  0  0  0  0  0  0
   48.1860   30.0250   48.0150 C   0  0  0  0  0  0  0  0  0  0  0  0
   47.7960   30.8060   49.0850 C   0  0  0  0  0  0  0  0  0  0  0  0
   48.8500   31.2970   49.7480 N   0  0  0  0  0  0  0  0  0  0  0  0
   49.9250   30.8300   49.1040 C   0  0  0  0  0  0  0  0  0  0  0  0
   49.5300   30.0710   48.0710 N   0  0  0  0  0  0  0  0  0  0  0  0
   51.2710   31.1180   49.4910 N   0  0  0  0  0  0  0  0  0  0  0  0
   45.4553   34.4050   46.2644 H   0  0  0  0  0  0  0  0  0  0  0  0
   46.7914   34.5945   44.1319 H   0  0  0  0  0  0  0  0  0  0  0  0
   47.8741   32.4773   43.1976 H   0  0  0  0  0  0  0  0  0  0  0  0
   48.0608   29.1794   46.1055 H   0  0  0  0  0  0  0  0  0  0  0  0
   47.3307   27.2235   46.5093 H   0  0  0  0  0  0  0  0  0  0  0  0
   47.8659   27.6691   48.2317 H   0  0  0  0  0  0  0  0  0  0  0  0
   45.4474   26.8663   47.2780 H   0  0  0  0  0  0  0  0  0  0  0  0
   44.0255   28.3047   48.3477 H   0  0  0  0  0  0  0  0  0  0  0  0
   45.4149   29.3230   48.8463 H   0  0  0  0  0  0  0  0  0  0  0  0
   44.1890   30.1828   46.8085 H   0  0  0  0  0  0  0  0  0  0  0  0
   44.6734   28.7257   45.9295 H   0  0  0  0  0  0  0  0  0  0  0  0
   46.7485   31.0006   49.3587 H   0  0  0  0  0  0  0  0  0  0  0  0
   48.8361   31.9059   50.5787 H   0  0  0  0  0  0  0  0  0  0  0  0
   52.0567   30.7268   48.9521 H   0  0  0  0  0  0  0  0  0  0  0  0
   51.4549   31.7167   50.3087 H   0  0  0  0  0  0  0  0  0  0  0  0
  1  6  2  0
  2  1  1  0
  3  2  2  0
  3  4  1  0
  4  5  2  0
  5  6  1  0
  5  7  1  0
  7 12  1  0
  7  8  1  0
  8  9  1  0
  8 13  1  0
  9 10  1  0
 10 11  1  0
 12 11  1  0
 13 17  1  0
 13 14  2  0
 14 15  1  0
 16 18  1  0
 16 15  1  0
 17 16  2  0
  1 19  1  0
  2 20  1  0
  3 21  1  0
  8 22  1  6
  9 23  1  0
  9 24  1  0
 10 25  1  0
 11 26  1  0
 11 27  1  0
 12 28  1  0
 12 29  1  0
 14 30  1  0
 15 31  1  0
 18 32  1  0
 18 33  1  0
M  ISO  8  19  14  20  14  21  14  22  13  23  13  24  13  25   5  26  13
M  ISO  5  27  13  28  13  29  13  30  14  31   9
M  END
>  <minimizedAffinity>  (1) 
-4.39886808

>  <minimizedRMSD>  (1) 
0.0297601447

$$$$
