
     RDKit          3D

 24 25  0  0  0  0  0  0  0  0999 V2000
   47.1560   34.2380   42.5980 C   0  0  0  0  0  0  0  0  0  0  0  0
   46.6020   35.1370   41.9230 O   0  0  0  0  0  0  0  0  0  0  0  0
   45.2860   34.2850   45.7690 C   0  0  0  0  0  0  0  0  0  0  0  0
   45.7610   34.6020   44.4870 C   0  0  0  0  0  0  0  0  0  0  0  0
   46.7590   33.8060   43.9170 C   0  0  0  0  0  0  0  0  0  0  0  0
   47.2190   32.7700   44.6310 N   0  0  0  0  0  0  0  0  0  0  0  0
   46.7530   32.4790   45.8600 C   0  0  0  0  0  0  0  0  0  0  0  0
   45.8020   33.2420   46.3990 N   0  0  0  0  0  0  0  0  0  0  0  0
   44.2770   35.0730   46.3690 N   0  0  0  0  0  0  0  0  0  0  0  0
   49.4980   31.6440   41.2720 N   0  0  0  0  0  0  0  0  0  0  0  0
   48.3080   32.1960   41.6130 C   0  0  0  0  0  0  0  0  0  0  0  0
   48.3130   33.4630   42.1620 C   0  0  0  0  0  0  0  0  0  0  0  0
   49.5060   34.1580   42.3610 C   0  0  0  0  0  0  0  0  0  0  0  0
   49.6260   35.3050   42.8470 O   0  0  0  0  0  0  0  0  0  0  0  0
   50.6730   33.5570   41.9990 N   0  0  0  0  0  0  0  0  0  0  0  0
   50.6510   32.3130   41.4620 C   0  0  0  0  0  0  0  0  0  0  0  0
   51.7430   31.7790   41.1360 O   0  0  0  0  0  0  0  0  0  0  0  0
   45.3539   35.4643   43.9386 H   0  0  0  0  0  0  0  0  0  0  0  0
   47.1539   31.6182   46.4152 H   0  0  0  0  0  0  0  0  0  0  0  0
   43.8865   35.8814   45.8642 H   0  0  0  0  0  0  0  0  0  0  0  0
   43.9324   34.8386   47.3109 H   0  0  0  0  0  0  0  0  0  0  0  0
   49.5207   30.6995   40.8618 H   0  0  0  0  0  0  0  0  0  0  0  0
   47.3656   31.6505   41.4569 H   0  0  0  0  0  0  0  0  0  0  0  0
   51.5694   34.0463   42.1329 H   0  0  0  0  0  0  0  0  0  0  0  0
  1  5  1  0
  2  1  2  0
  3  9  1  0
  3  8  2  0
  4  3  1  0
  5  4  2  0
  5  6  1  0
  6  7  2  0
  7  8  1  0
 10 16  1  0
 10 11  1  0
 11 12  2  0
 12 13  1  0
 12  1  1  0
 13 14  2  0
 15 13  1  0
 16 15  1  0
 17 16  2  0
  4 18  1  0
  7 19  1  0
  9 20  1  0
  9 21  1  0
 10 22  1  0
 11 23  1  0
 15 24  1  0
M  ISO  5  18  14  19  14  22   9  23  14  24   9
M  END
>  <minimizedAffinity>  (1) 
-5.1922307

>  <minimizedRMSD>  (1) 
3.38049078

$$$$
