
     RDKit          3D

 30 31  0  0  0  0  0  0  0  0999 V2000
   44.9040   35.1080   44.0290 C   0  0  0  0  0  0  0  0  0  0  0  0
   45.7760   35.3720   42.9610 C   0  0  0  0  0  0  0  0  0  0  0  0
   47.0000   34.6800   42.9020 C   0  0  0  0  0  0  0  0  0  0  0  0
   47.2600   33.7910   43.8920 N   0  0  0  0  0  0  0  0  0  0  0  0
   46.3930   33.5700   44.8990 C   0  0  0  0  0  0  0  0  0  0  0  0
   45.2360   34.2180   44.9630 N   0  0  0  0  0  0  0  0  0  0  0  0
   43.6750   35.8140   44.0730 N   0  0  0  0  0  0  0  0  0  0  0  0
   47.8510   34.9830   41.7970 C   0  0  0  0  0  0  0  0  0  0  0  0
   48.7450   35.8770   41.7950 O   0  0  0  0  0  0  0  0  0  0  0  0
   47.6500   34.1690   40.5700 C   0  0  0  0  0  0  0  0  0  0  0  0
   48.1890   32.7950   40.8010 C   0  0  0  0  0  0  0  0  0  0  0  0
   48.9890   32.2300   39.6780 C   0  0  0  0  0  0  0  0  0  0  0  0
   48.5870   32.6210   38.3040 C   0  0  0  0  0  0  0  0  0  0  0  0
   47.9510   33.9740   38.1880 C   0  0  0  0  0  0  0  0  0  0  0  0
   48.3250   34.8000   39.3960 C   0  0  0  0  0  0  0  0  0  0  0  0
   45.5080   36.1050   42.1859 H   0  0  0  0  0  0  0  0  0  0  0  0
   46.6480   32.8402   45.6816 H   0  0  0  0  0  0  0  0  0  0  0  0
   43.4463   36.4963   43.3360 H   0  0  0  0  0  0  0  0  0  0  0  0
   43.0110   35.6446   44.8419 H   0  0  0  0  0  0  0  0  0  0  0  0
   46.5739   34.1118   40.3492 H   0  0  0  0  0  0  0  0  0  0  0  0
   48.8309   32.8269   41.6937 H   0  0  0  0  0  0  0  0  0  0  0  0
   47.3135   32.1385   40.9125 H   0  0  0  0  0  0  0  0  0  0  0  0
   50.0327   32.5462   39.8215 H   0  0  0  0  0  0  0  0  0  0  0  0
   48.8242   31.1435   39.7267 H   0  0  0  0  0  0  0  0  0  0  0  0
   49.4860   32.6116   37.6703 H   0  0  0  0  0  0  0  0  0  0  0  0
   47.8223   31.8952   37.9904 H   0  0  0  0  0  0  0  0  0  0  0  0
   48.3093   34.4726   37.2753 H   0  0  0  0  0  0  0  0  0  0  0  0
   46.8575   33.8667   38.1360 H   0  0  0  0  0  0  0  0  0  0  0  0
   49.4159   34.7940   39.5370 H   0  0  0  0  0  0  0  0  0  0  0  0
   48.0110   35.8471   39.2733 H   0  0  0  0  0  0  0  0  0  0  0  0
  1  7  1  0
  1  6  2  0
  2  1  1  0
  3  2  2  0
  3  4  1  0
  4  5  2  0
  5  6  1  0
  8  3  1  0
  9  8  2  0
 10 11  1  0
 10  8  1  0
 12 11  1  0
 13 12  1  0
 14 13  1  0
 14 15  1  0
 15 10  1  0
  2 16  1  0
  5 17  1  0
  7 18  1  0
  7 19  1  0
 10 20  1  0
 11 21  1  0
 11 22  1  0
 12 23  1  0
 12 24  1  0
 13 25  1  0
 13 26  1  0
 14 27  1  0
 14 28  1  0
 15 29  1  0
 15 30  1  0
M  ISO  8  16  14  17  14  20  13  21  13  22  13  23  13  24  13  25  13
M  ISO  5  26  13  27  13  28  13  29  13  30  13
M  END
>  <minimizedAffinity>  (1) 
-4.98442411

>  <minimizedRMSD>  (1) 
0.805926859

$$$$
