
     RDKit          3D

 34 35  0  0  1  0  0  0  0  0999 V2000
   47.1290   34.7050   40.6950 O   0  0  0  0  0  0  0  0  0  0  0  0
   47.8390   34.7790   41.8930 C   0  0  0  0  0  0  0  0  0  0  0  0
   49.0650   35.0320   41.9370 O   0  0  0  0  0  0  0  0  0  0  0  0
   44.9490   35.0580   44.1730 C   0  0  0  0  0  0  0  0  0  0  0  0
   45.8110   35.2700   43.0860 C   0  0  0  0  0  0  0  0  0  0  0  0
   46.9780   34.5290   43.0290 C   0  0  0  0  0  0  0  0  0  0  0  0
   47.2420   33.6450   44.0030 N   0  0  0  0  0  0  0  0  0  0  0  0
   46.3890   33.4600   45.0440 C   0  0  0  0  0  0  0  0  0  0  0  0
   45.2640   34.1670   45.1100 N   0  0  0  0  0  0  0  0  0  0  0  0
   43.7430   35.8060   44.2550 N   0  0  0  0  0  0  0  0  0  0  0  0
   46.5210   32.1530   40.0930 O   0  0  0  0  0  0  0  0  0  0  0  0
   47.2120   33.3730   39.6270 P   0  0  1  0  0  0  0  0  0  0  0  0
   46.4530   33.9010   38.1810 O   0  0  0  0  0  0  0  0  0  0  0  0
   48.8340   33.0800   39.2540 O   0  0  0  0  0  0  0  0  0  0  0  0
   47.8050   31.7110   37.6450 N   0  0  0  0  0  0  0  0  0  0  0  0
   48.8830   32.6710   37.9300 C   0  0  1  0  0  0  0  0  0  0  0  0
   48.6350   33.8450   37.0320 C   0  0  0  0  0  0  0  0  0  0  0  0
   48.1890   33.3890   35.7290 N   0  0  0  0  0  0  0  0  0  0  0  0
   48.6990   32.0730   35.3890 C   0  0  0  0  0  0  0  0  0  0  0  0
   48.2180   31.0670   36.3930 C   0  0  0  0  0  0  0  0  0  0  0  0
   45.5663   36.0030   42.3032 H   0  0  0  0  0  0  0  0  0  0  0  0
   46.6277   32.7281   45.8297 H   0  0  0  0  0  0  0  0  0  0  0  0
   43.5119   36.4923   43.5226 H   0  0  0  0  0  0  0  0  0  0  0  0
   43.1003   35.6616   45.0468 H   0  0  0  0  0  0  0  0  0  0  0  0
   45.6615   34.4516   38.4058 H   0  0  0  0  0  0  0  0  0  0  0  0
   47.7233   31.0180   38.4026 H   0  0  0  0  0  0  0  0  0  0  0  0
   49.8715   32.2200   37.7585 H   0  0  0  0  0  0  0  0  0  0  0  0
   47.8609   34.4871   37.4776 H   0  0  0  0  0  0  0  0  0  0  0  0
   49.5697   34.4130   36.9147 H   0  0  0  0  0  0  0  0  0  0  0  0
   47.1596   33.3536   35.7273 H   0  0  0  0  0  0  0  0  0  0  0  0
   48.3411   31.7900   34.3881 H   0  0  0  0  0  0  0  0  0  0  0  0
   49.7987   32.0964   35.3963 H   0  0  0  0  0  0  0  0  0  0  0  0
   47.3600   30.5231   35.9710 H   0  0  0  0  0  0  0  0  0  0  0  0
   49.0468   30.3791   36.6161 H   0  0  0  0  0  0  0  0  0  0  0  0
  1  2  1  0
  2  3  2  0
  2  6  1  0
  4 10  1  0
  4  9  2  0
  5  4  1  0
  6  5  2  0
  6  7  1  0
  7  8  2  0
  8  9  1  0
 12 11  2  0
 12  1  1  0
 13 12  1  0
 14 12  1  0
 15 16  1  0
 16 14  1  0
 17 16  1  0
 18 17  1  0
 19 18  1  0
 19 20  1  0
 20 15  1  0
  5 21  1  0
  8 22  1  0
 10 23  1  0
 10 24  1  0
 13 25  1  0
 15 26  1  0
 16 27  1  6
 17 28  1  0
 17 29  1  0
 18 30  1  0
 19 31  1  0
 19 32  1  0
 20 33  1  0
 20 34  1  0
M  ISO  8  21  14  22  14  25   3  26   5  27  13  28  13  29  13  30   5
M  ISO  4  31  13  32  13  33  13  34  13
M  END
>  <minimizedAffinity>  (1) 
-5.06465292

>  <minimizedRMSD>  (1) 
1.66524851

$$$$
