
     RDKit          3D

 24 24  0  0  0  0  0  0  0  0999 V2000
   47.7500   35.0950   41.7270 C   0  0  0  0  0  0  0  0  0  0  0  0
   48.7830   35.7990   41.7470 O   0  0  0  0  0  0  0  0  0  0  0  0
   44.9040   35.1250   44.0900 C   0  0  0  0  0  0  0  0  0  0  0  0
   45.7280   35.4410   42.9830 C   0  0  0  0  0  0  0  0  0  0  0  0
   46.9280   34.7530   42.8650 C   0  0  0  0  0  0  0  0  0  0  0  0
   47.2550   33.8290   43.7950 N   0  0  0  0  0  0  0  0  0  0  0  0
   46.4270   33.5620   44.8400 C   0  0  0  0  0  0  0  0  0  0  0  0
   45.2860   34.2070   44.9630 N   0  0  0  0  0  0  0  0  0  0  0  0
   43.6720   35.8220   44.2200 N   0  0  0  0  0  0  0  0  0  0  0  0
   47.2400   34.5270   40.5460 O   0  0  0  0  0  0  0  0  0  0  0  0
   49.2100   32.7250   40.3280 O   0  0  0  0  0  0  0  0  0  0  0  0
   48.0490   33.3340   39.6330 P   0  0  1  0  0  0  0  0  0  0  0  0
   46.8970   32.1040   39.3560 O   0  0  0  0  0  0  0  0  0  0  0  0
   48.4860   34.0100   38.1580 O   0  0  0  0  0  0  0  0  0  0  0  0
   47.9250   33.7400   36.9290 C   0  0  0  0  0  0  0  0  0  0  0  0
   48.6750   33.3280   36.0050 O   0  0  0  0  0  0  0  0  0  0  0  0
   46.5100   33.9950   36.9360 N   0  0  0  0  0  0  0  0  0  0  0  0
   45.4294   36.2011   42.2460 H   0  0  0  0  0  0  0  0  0  0  0  0
   46.7115   32.8045   45.5851 H   0  0  0  0  0  0  0  0  0  0  0  0
   43.4052   36.5309   43.5220 H   0  0  0  0  0  0  0  0  0  0  0  0
   43.0460   35.6181   45.0122 H   0  0  0  0  0  0  0  0  0  0  0  0
   46.5709   31.7558   40.2235 H   0  0  0  0  0  0  0  0  0  0  0  0
   45.9541   33.8375   36.0833 H   0  0  0  0  0  0  0  0  0  0  0  0
   46.0523   34.3352   37.7937 H   0  0  0  0  0  0  0  0  0  0  0  0
  1  2  2  0
  1  5  1  0
  3  9  1  0
  3  8  2  0
  4  3  1  0
  5  4  2  0
  5  6  1  0
  6  7  2  0
  7  8  1  0
 10  1  1  0
 12 11  2  0
 12 10  1  0
 13 12  1  0
 14 12  1  0
 15 17  1  0
 15 14  1  0
 16 15  2  0
  4 18  1  0
  7 19  1  0
  9 20  1  0
  9 21  1  0
 13 22  1  0
 17 23  1  0
 17 24  1  0
M  ISO  3  18  14  19  14  22   3
M  END
>  <minimizedAffinity>  (1) 
-4.95706701

>  <minimizedRMSD>  (1) 
1.33865535

$$$$
