
     RDKit          3D

 27 28  0  0  0  0  0  0  0  0999 V2000
   44.6210   36.1060   44.2520 C   0  0  0  0  0  0  0  0  0  0  0  0
   45.4240   35.6920   43.1800 C   0  0  0  0  0  0  0  0  0  0  0  0
   46.1970   34.5430   43.3060 C   0  0  0  0  0  0  0  0  0  0  0  0
   46.1360   33.8590   44.4910 N   0  0  0  0  0  0  0  0  0  0  0  0
   45.3450   34.2910   45.5110 C   0  0  0  0  0  0  0  0  0  0  0  0
   44.5960   35.4030   45.3930 N   0  0  0  0  0  0  0  0  0  0  0  0
   47.0310   34.0160   42.3430 O   0  0  0  0  0  0  0  0  0  0  0  0
   47.6880   34.7130   41.3430 C   0  0  0  0  0  0  0  0  0  0  0  0
   48.7660   35.6120   41.8650 C   0  0  0  0  0  0  0  0  0  0  0  0
   49.8520   34.9000   42.6000 C   0  0  0  0  0  0  0  0  0  0  0  0
   50.2870   33.5970   42.0390 C   0  0  0  0  0  0  0  0  0  0  0  0
   49.2620   32.8570   41.2480 C   0  0  0  0  0  0  0  0  0  0  0  0
   48.3890   33.7210   40.4070 C   0  0  0  0  0  0  0  0  0  0  0  0
   44.0073   37.0139   44.1561 H   0  0  0  0  0  0  0  0  0  0  0  0
   45.4424   36.2721   42.2456 H   0  0  0  0  0  0  0  0  0  0  0  0
   45.3174   33.7198   46.4507 H   0  0  0  0  0  0  0  0  0  0  0  0
   46.9183   35.3156   40.8386 H   0  0  0  0  0  0  0  0  0  0  0  0
   49.2161   36.1422   41.0127 H   0  0  0  0  0  0  0  0  0  0  0  0
   48.2893   36.2925   42.5858 H   0  0  0  0  0  0  0  0  0  0  0  0
   50.7294   35.5630   42.6244 H   0  0  0  0  0  0  0  0  0  0  0  0
   49.4293   34.6651   43.5880 H   0  0  0  0  0  0  0  0  0  0  0  0
   51.1501   33.7831   41.3829 H   0  0  0  0  0  0  0  0  0  0  0  0
   50.5137   32.9589   42.9059 H   0  0  0  0  0  0  0  0  0  0  0  0
   49.7834   32.1488   40.5873 H   0  0  0  0  0  0  0  0  0  0  0  0
   48.6032   32.3610   41.9760 H   0  0  0  0  0  0  0  0  0  0  0  0
   48.9970   34.2653   39.6694 H   0  0  0  0  0  0  0  0  0  0  0  0
   47.6515   33.1141   39.8612 H   0  0  0  0  0  0  0  0  0  0  0  0
  1  6  2  0
  2  3  2  0
  2  1  1  0
  3  4  1  0
  4  5  2  0
  6  5  1  0
  7  3  1  0
  8  9  1  0
  8  7  1  0
  9 10  1  0
 11 10  1  0
 12 11  1  0
 13 12  1  0
 13  8  1  0
  1 14  1  0
  2 15  1  0
  5 16  1  0
  8 17  1  0
  9 18  1  0
  9 19  1  0
 10 20  1  0
 10 21  1  0
 11 22  1  0
 11 23  1  0
 12 24  1  0
 12 25  1  0
 13 26  1  0
 13 27  1  0
M  ISO  8  14  14  15  14  16  14  17  13  18  13  19  13  20  13  21  13
M  ISO  6  22  13  23  13  24  13  25  13  26  13  27  13
M  END
>  <minimizedAffinity>  (1) 
-4.76722383

>  <minimizedRMSD>  (1) 
3.19039512

$$$$
