
     RDKit          3D

 24 25  0  0  0  0  0  0  0  0999 V2000
   44.4530   35.9350   44.6870 C   0  0  0  0  0  0  0  0  0  0  0  0
   45.1670   36.0060   43.4910 C   0  0  0  0  0  0  0  0  0  0  0  0
   46.1580   35.0730   43.2340 C   0  0  0  0  0  0  0  0  0  0  0  0
   46.3830   34.1210   44.1760 N   0  0  0  0  0  0  0  0  0  0  0  0
   45.6850   34.0720   45.3180 C   0  0  0  0  0  0  0  0  0  0  0  0
   44.7270   34.9740   45.5690 N   0  0  0  0  0  0  0  0  0  0  0  0
   45.9750   33.0240   46.2920 C   0  0  0  0  0  0  0  0  0  0  0  0
   45.2680   32.9810   47.4900 C   0  0  0  0  0  0  0  0  0  0  0  0
   45.4980   32.0140   48.4480 C   0  0  0  0  0  0  0  0  0  0  0  0
   46.4750   31.0860   48.1530 C   0  0  0  0  0  0  0  0  0  0  0  0
   47.2050   31.0830   46.9820 C   0  0  0  0  0  0  0  0  0  0  0  0
   46.9440   32.0770   46.0350 C   0  0  0  0  0  0  0  0  0  0  0  0
   46.9420   35.0200   42.0990 O   0  0  0  0  0  0  0  0  0  0  0  0
   46.4410   34.2180   41.0130 C   0  0  0  0  0  0  0  0  0  0  0  0
   45.1540   34.6230   40.7040 F   0  0  0  0  0  0  0  0  0  0  0  0
   47.2680   34.4550   39.9080 F   0  0  0  0  0  0  0  0  0  0  0  0
   46.5230   32.8650   41.3180 F   0  0  0  0  0  0  0  0  0  0  0  0
   43.6646   36.6713   44.9021 H   0  0  0  0  0  0  0  0  0  0  0  0
   44.9451   36.7959   42.7583 H   0  0  0  0  0  0  0  0  0  0  0  0
   44.4990   33.7442   47.6802 H   0  0  0  0  0  0  0  0  0  0  0  0
   44.9346   31.9852   49.3923 H   0  0  0  0  0  0  0  0  0  0  0  0
   46.6846   30.3018   48.8953 H   0  0  0  0  0  0  0  0  0  0  0  0
   47.9732   30.3173   46.7985 H   0  0  0  0  0  0  0  0  0  0  0  0
   47.5078   32.1039   45.0908 H   0  0  0  0  0  0  0  0  0  0  0  0
  1  6  2  0
  2  1  1  0
  3  2  2  0
  3  4  1  0
  4  5  2  0
  5  6  1  0
  5  7  1  0
  7  8  2  0
  8  9  1  0
 10  9  2  0
 11 10  1  0
 12  7  1  0
 12 11  2  0
 13  3  1  0
 14 17  1  0
 14 13  1  0
 15 14  1  0
 16 14  1  0
  1 18  1  0
  2 19  1  0
  8 20  1  0
  9 21  1  0
 10 22  1  0
 11 23  1  0
 12 24  1  0
M  ISO  7  18  14  19  14  20  14  21  14  22  14  23  14  24  14
M  END
>  <minimizedAffinity>  (1) 
-5.22555065

>  <minimizedRMSD>  (1) 
0.550112784

$$$$
