
     RDKit          3D

 28 29  0  0  0  0  0  0  0  0999 V2000
   44.4990   35.8520   44.9120 C   0  0  0  0  0  0  0  0  0  0  0  0
   45.1960   35.9410   43.7010 C   0  0  0  0  0  0  0  0  0  0  0  0
   46.1220   34.9420   43.3720 C   0  0  0  0  0  0  0  0  0  0  0  0
   46.2910   33.9370   44.2540 N   0  0  0  0  0  0  0  0  0  0  0  0
   45.6110   33.8690   45.4130 C   0  0  0  0  0  0  0  0  0  0  0  0
   44.7230   34.8190   45.7380 N   0  0  0  0  0  0  0  0  0  0  0  0
   45.8240   32.7390   46.3690 C   0  0  0  0  0  0  0  0  0  0  0  0
   45.0810   33.0480   47.6780 C   0  0  0  0  0  0  0  0  0  0  0  0
   45.0360   31.6940   48.3940 C   0  0  0  0  0  0  0  0  0  0  0  0
   46.3130   31.2260   48.5920 O   0  0  0  0  0  0  0  0  0  0  0  0
   47.3150   32.1010   48.2200 C   0  0  0  0  0  0  0  0  0  0  0  0
   47.2400   32.5050   46.7490 C   0  0  0  0  0  0  0  0  0  0  0  0
   46.8810   34.8940   42.2180 O   0  0  0  0  0  0  0  0  0  0  0  0
   46.2760   34.2330   41.0940 C   0  0  0  0  0  0  0  0  0  0  0  0
   45.0470   34.7970   40.8180 F   0  0  0  0  0  0  0  0  0  0  0  0
   47.1110   34.4170   39.9830 F   0  0  0  0  0  0  0  0  0  0  0  0
   46.1690   32.8540   41.3180 F   0  0  0  0  0  0  0  0  0  0  0  0
   43.7689   36.6279   45.1857 H   0  0  0  0  0  0  0  0  0  0  0  0
   45.0191   36.7840   43.0168 H   0  0  0  0  0  0  0  0  0  0  0  0
   45.4571   31.8444   45.8445 H   0  0  0  0  0  0  0  0  0  0  0  0
   45.6302   33.7904   48.2757 H   0  0  0  0  0  0  0  0  0  0  0  0
   44.0820   33.4774   47.5117 H   0  0  0  0  0  0  0  0  0  0  0  0
   44.5362   31.8124   49.3667 H   0  0  0  0  0  0  0  0  0  0  0  0
   44.4793   30.9755   47.7745 H   0  0  0  0  0  0  0  0  0  0  0  0
   47.2349   33.0081   48.8370 H   0  0  0  0  0  0  0  0  0  0  0  0
   48.2747   31.5849   48.3705 H   0  0  0  0  0  0  0  0  0  0  0  0
   47.6580   31.7002   46.1264 H   0  0  0  0  0  0  0  0  0  0  0  0
   47.8176   33.4282   46.5935 H   0  0  0  0  0  0  0  0  0  0  0  0
  1  6  2  0
  2  1  1  0
  3  2  2  0
  3  4  1  0
  4  5  2  0
  5  6  1  0
  5  7  1  0
  7 12  1  0
  7  8  1  0
  8  9  1  0
  9 10  1  0
 11 10  1  0
 12 11  1  0
 13  3  1  0
 14 17  1  0
 14 13  1  0
 15 14  1  0
 16 14  1  0
  1 18  1  0
  2 19  1  0
  7 20  1  0
  8 21  1  0
  8 22  1  0
  9 23  1  0
  9 24  1  0
 11 25  1  0
 11 26  1  0
 12 27  1  0
 12 28  1  0
M  ISO  8  18  14  19  14  20  13  21  13  22  13  23  13  24  13  25  13
M  ISO  3  26  13  27  13  28  13
M  END
>  <minimizedAffinity>  (1) 
-4.97456646

>  <minimizedRMSD>  (1) 
0.660329223

$$$$
