
     RDKit          3D

 21 22  0  0  0  0  0  0  0  0999 V2000
   44.4910   35.9060   44.7030 C   0  0  0  0  0  0  0  0  0  0  0  0
   45.2180   35.9390   43.5110 C   0  0  0  0  0  0  0  0  0  0  0  0
   46.1930   34.9790   43.2480 C   0  0  0  0  0  0  0  0  0  0  0  0
   46.3820   34.0380   44.2000 N   0  0  0  0  0  0  0  0  0  0  0  0
   45.6780   34.0150   45.3430 C   0  0  0  0  0  0  0  0  0  0  0  0
   44.7400   34.9360   45.6000 N   0  0  0  0  0  0  0  0  0  0  0  0
   45.9240   32.9580   46.3570 C   0  0  0  0  0  0  0  0  0  0  0  0
   45.2260   32.9670   47.6110 C   0  0  0  0  0  0  0  0  0  0  0  0
   45.5260   31.9480   48.4780 C   0  0  0  0  0  0  0  0  0  0  0  0
   46.4490   30.9510   48.1800 C   0  0  0  0  0  0  0  0  0  0  0  0
   46.9880   31.4990   46.4420 S   0  0  0  0  0  0  0  0  0  0  0  0
   46.9760   34.8940   42.1230 O   0  0  0  0  0  0  0  0  0  0  0  0
   46.4020   34.1910   41.0030 C   0  0  0  0  0  0  0  0  0  0  0  0
   45.1420   34.6930   40.7280 F   0  0  0  0  0  0  0  0  0  0  0  0
   47.2390   34.4080   39.9000 F   0  0  0  0  0  0  0  0  0  0  0  0
   46.3750   32.8070   41.2490 F   0  0  0  0  0  0  0  0  0  0  0  0
   43.7222   36.6662   44.9059 H   0  0  0  0  0  0  0  0  0  0  0  0
   45.0191   36.7301   42.7730 H   0  0  0  0  0  0  0  0  0  0  0  0
   44.4922   33.7470   47.8623 H   0  0  0  0  0  0  0  0  0  0  0  0
   45.0146   31.9176   49.4514 H   0  0  0  0  0  0  0  0  0  0  0  0
   46.7749   30.0890   48.7806 H   0  0  0  0  0  0  0  0  0  0  0  0
  1  6  2  0
  2  1  1  0
  3  2  2  0
  3  4  1  0
  4  5  2  0
  5  6  1  0
  5  7  1  0
  7 11  1  0
  7  8  2  0
  8  9  1  0
 10  9  2  0
 11 10  1  0
 12  3  1  0
 13 16  1  0
 13 12  1  0
 14 13  1  0
 15 13  1  0
  1 17  1  0
  2 18  1  0
  8 19  1  0
  9 20  1  0
 10 21  1  0
M  ISO  5  17  14  18  14  19  14  20  14  21  14
M  END
>  <minimizedAffinity>  (1) 
-4.87035036

>  <minimizedRMSD>  (1) 
0.711950064

$$$$
