
     RDKit          3D

 17 17  0  0  0  0  0  0  0  0999 V2000
   44.5320   35.8910   44.3880 C   0  0  0  0  0  0  0  0  0  0  0  0
   45.3170   36.0190   43.2290 C   0  0  0  0  0  0  0  0  0  0  0  0
   46.3560   35.1250   43.0140 C   0  0  0  0  0  0  0  0  0  0  0  0
   46.5620   34.1670   43.9420 N   0  0  0  0  0  0  0  0  0  0  0  0
   45.7970   34.0590   45.0540 C   0  0  0  0  0  0  0  0  0  0  0  0
   44.7860   34.9200   45.2740 N   0  0  0  0  0  0  0  0  0  0  0  0
   46.1130   32.9640   46.0120 C   0  0  0  0  0  0  0  0  0  0  0  0
   47.1910   35.1380   41.9300 O   0  0  0  0  0  0  0  0  0  0  0  0
   46.8580   34.2410   40.8500 C   0  0  0  0  0  0  0  0  0  0  0  0
   45.5200   34.3790   40.5440 F   0  0  0  0  0  0  0  0  0  0  0  0
   47.6250   34.6170   39.7420 F   0  0  0  0  0  0  0  0  0  0  0  0
   47.1900   32.9360   41.1700 F   0  0  0  0  0  0  0  0  0  0  0  0
   43.7042   36.5927   44.5680 H   0  0  0  0  0  0  0  0  0  0  0  0
   45.1102   36.8179   42.5017 H   0  0  0  0  0  0  0  0  0  0  0  0
   46.0058   33.3355   47.0418 H   0  0  0  0  0  0  0  0  0  0  0  0
   45.4204   32.1247   45.8510 H   0  0  0  0  0  0  0  0  0  0  0  0
   47.1463   32.6228   45.8510 H   0  0  0  0  0  0  0  0  0  0  0  0
  1  6  2  0
  2  1  1  0
  3  2  2  0
  3  4  1  0
  4  5  2  0
  5  6  1  0
  5  7  1  0
  8  3  1  0
  9 12  1  0
  9  8  1  0
 10  9  1  0
 11  9  1  0
  1 13  1  0
  2 14  1  0
  7 15  1  0
  7 16  1  0
  7 17  1  0
M  ISO  5  13  14  14  14  15   8  16   8  17   8
M  END
>  <minimizedAffinity>  (1) 
-3.98342514

>  <minimizedRMSD>  (1) 
0.0564640909

$$$$
