
     RDKit          3D

 42 44  0  0  0  0  0  0  0  0999 V2000
   46.6480   32.2080   47.6790 C   0  0  0  0  0  0  0  0  0  0  0  0
   46.6040   32.7660   45.4050 C   0  0  0  0  0  0  0  0  0  0  0  0
   45.8910   31.8510   44.9450 O   0  0  0  0  0  0  0  0  0  0  0  0
   47.0500   33.0960   46.6830 N   0  0  0  0  0  0  0  0  0  0  0  0
   44.8910   35.1210   44.4970 Cl  0  0  0  0  0  0  0  0  0  0  0  0
   46.2650   34.5710   43.5890 C   0  0  0  0  0  0  0  0  0  0  0  0
   46.9010   33.5000   44.1700 C   0  0  0  0  0  0  0  0  0  0  0  0
   48.0270   32.9370   43.5650 C   0  0  0  0  0  0  0  0  0  0  0  0
   48.5120   33.4590   42.3660 C   0  0  0  0  0  0  0  0  0  0  0  0
   47.8550   34.5370   41.8000 C   0  0  0  0  0  0  0  0  0  0  0  0
   48.4070   35.2360   40.2970 Cl  0  0  0  0  0  0  0  0  0  0  0  0
   46.7500   35.0800   42.4060 C   0  0  0  0  0  0  0  0  0  0  0  0
   48.5810   31.1770   48.7540 C   0  0  0  0  0  0  0  0  0  0  0  0
   47.6350   32.0880   48.7840 C   0  0  0  0  0  0  0  0  0  0  0  0
   51.2270   31.9800   51.1420 C   0  0  0  0  0  0  0  0  0  0  0  0
   51.3520   30.7580   51.8510 C   0  0  0  0  0  0  0  0  0  0  0  0
   50.5400   29.6870   51.5010 C   0  0  0  0  0  0  0  0  0  0  0  0
   49.6810   29.8830   50.5060 N   0  0  0  0  0  0  0  0  0  0  0  0
   49.5570   31.0440   49.8310 C   0  0  0  0  0  0  0  0  0  0  0  0
   50.3310   32.0940   50.1480 N   0  0  0  0  0  0  0  0  0  0  0  0
   52.3960   30.7660   52.9400 C   0  0  0  0  0  0  0  0  0  0  0  0
   51.8860   30.8340   54.3920 C   0  0  0  0  0  0  0  0  0  0  0  0
   52.4750   32.0200   53.7830 C   0  0  0  0  0  0  0  0  0  0  0  0
   50.6240   28.5030   52.1470 O   0  0  0  0  0  0  0  0  0  0  0  0
   51.5150   27.5200   51.6110 C   0  0  0  0  0  0  0  0  0  0  0  0
   52.0340   27.9790   50.3920 F   0  0  0  0  0  0  0  0  0  0  0  0
   52.5830   27.4330   52.5060 F   0  0  0  0  0  0  0  0  0  0  0  0
   50.9430   26.2610   51.4790 F   0  0  0  0  0  0  0  0  0  0  0  0
   46.5058   31.2154   47.2269 H   0  0  0  0  0  0  0  0  0  0  0  0
   45.7158   32.5998   48.1120 H   0  0  0  0  0  0  0  0  0  0  0  0
   47.6282   33.9264   46.8755 H   0  0  0  0  0  0  0  0  0  0  0  0
   48.5322   32.0803   44.0350 H   0  0  0  0  0  0  0  0  0  0  0  0
   49.3978   33.0230   41.8809 H   0  0  0  0  0  0  0  0  0  0  0  0
   46.2432   35.9369   41.9381 H   0  0  0  0  0  0  0  0  0  0  0  0
   48.6392   30.4951   47.8928 H   0  0  0  0  0  0  0  0  0  0  0  0
   47.5722   32.7739   49.6417 H   0  0  0  0  0  0  0  0  0  0  0  0
   51.8651   32.8360   51.4067 H   0  0  0  0  0  0  0  0  0  0  0  0
   53.1001   30.1368   52.3759 H   0  0  0  0  0  0  0  0  0  0  0  0
   50.8056   30.8012   54.5959 H   0  0  0  0  0  0  0  0  0  0  0  0
   52.0787   30.2570   55.3085 H   0  0  0  0  0  0  0  0  0  0  0  0
   53.4546   32.3797   54.1310 H   0  0  0  0  0  0  0  0  0  0  0  0
   52.1330   33.0561   53.6436 H   0  0  0  0  0  0  0  0  0  0  0  0
  1 14  1  0
  2  4  1  0
  3  2  2  0
  4  1  1  0
  6  7  2  0
  6  5  1  0
  7  2  1  0
  8  7  1  0
  9  8  2  0
 10  9  1  0
 10 12  2  0
 11 10  1  0
 12  6  1  0
 13 14  2  0
 13 19  1  0
 15 16  2  0
 16 21  1  0
 17 16  1  0
 17 24  1  0
 18 17  2  0
 19 20  2  0
 19 18  1  0
 20 15  1  0
 21 23  1  0
 21 22  1  0
 23 22  1  0
 25 24  1  0
 25 27  1  0
 26 25  1  0
 28 25  1  0
  1 29  1  0
  1 30  1  0
  4 31  1  0
  8 32  1  0
  9 33  1  0
 12 34  1  0
 13 35  1  0
 14 36  1  0
 15 37  1  0
 21 38  1  0
 22 39  1  0
 22 40  1  0
 23 41  1  0
 23 42  1  0
M  ISO  8  29   8  30   8  32  14  33  14  34  14  37  14  38  13  39  13
M  ISO  3  40  13  41  13  42  13
M  END
>  <minimizedAffinity>  (1) 
-6.77259398

>  <minimizedRMSD>  (1) 
0.236665547

$$$$
