
     RDKit          3D

 37 38  0  0  0  0  0  0  0  0999 V2000
   46.5930   32.1620   47.6300 C   0  0  0  0  0  0  0  0  0  0  0  0
   46.5840   32.7730   45.3740 C   0  0  0  0  0  0  0  0  0  0  0  0
   45.8790   31.8540   44.8920 O   0  0  0  0  0  0  0  0  0  0  0  0
   47.0100   33.0880   46.6620 N   0  0  0  0  0  0  0  0  0  0  0  0
   44.8740   35.1290   44.4650 Cl  0  0  0  0  0  0  0  0  0  0  0  0
   46.2590   34.5960   43.5750 C   0  0  0  0  0  0  0  0  0  0  0  0
   46.8910   33.5250   44.1530 C   0  0  0  0  0  0  0  0  0  0  0  0
   48.0360   32.9690   43.5560 C   0  0  0  0  0  0  0  0  0  0  0  0
   48.5350   33.5030   42.3760 C   0  0  0  0  0  0  0  0  0  0  0  0
   47.8810   34.5880   41.8070 C   0  0  0  0  0  0  0  0  0  0  0  0
   48.4540   35.3090   40.3230 Cl  0  0  0  0  0  0  0  0  0  0  0  0
   46.7560   35.1210   42.4080 C   0  0  0  0  0  0  0  0  0  0  0  0
   48.5750   31.2220   48.6940 C   0  0  0  0  0  0  0  0  0  0  0  0
   47.5510   32.0450   48.7560 C   0  0  0  0  0  0  0  0  0  0  0  0
   51.1770   32.0160   51.1330 C   0  0  0  0  0  0  0  0  0  0  0  0
   51.2840   30.7850   51.8360 C   0  0  0  0  0  0  0  0  0  0  0  0
   50.4870   29.7140   51.4700 C   0  0  0  0  0  0  0  0  0  0  0  0
   49.6580   29.9370   50.4610 N   0  0  0  0  0  0  0  0  0  0  0  0
   49.5380   31.0790   49.7900 C   0  0  0  0  0  0  0  0  0  0  0  0
   50.3010   32.1350   50.1200 N   0  0  0  0  0  0  0  0  0  0  0  0
   52.2360   30.8530   52.9070 C   0  0  0  0  0  0  0  0  0  0  0  0
   52.1550   30.5650   54.1060 O   0  0  0  0  0  0  0  0  0  0  0  0
   50.5630   28.5290   52.1100 O   0  0  0  0  0  0  0  0  0  0  0  0
   51.4920   27.5600   51.5900 C   0  0  0  0  0  0  0  0  0  0  0  0
   51.9980   28.0120   50.3690 F   0  0  0  0  0  0  0  0  0  0  0  0
   52.5500   27.5200   52.5010 F   0  0  0  0  0  0  0  0  0  0  0  0
   50.9500   26.2840   51.4840 F   0  0  0  0  0  0  0  0  0  0  0  0
   46.4879   31.1765   47.1528 H   0  0  0  0  0  0  0  0  0  0  0  0
   45.6366   32.5172   48.0413 H   0  0  0  0  0  0  0  0  0  0  0  0
   47.5761   33.9198   46.8824 H   0  0  0  0  0  0  0  0  0  0  0  0
   48.5372   32.1094   44.0248 H   0  0  0  0  0  0  0  0  0  0  0  0
   49.4304   33.0754   41.9011 H   0  0  0  0  0  0  0  0  0  0  0  0
   46.2505   35.9803   41.9433 H   0  0  0  0  0  0  0  0  0  0  0  0
   48.7141   30.6180   47.7852 H   0  0  0  0  0  0  0  0  0  0  0  0
   47.4027   32.6568   49.6581 H   0  0  0  0  0  0  0  0  0  0  0  0
   51.8098   32.8697   51.4173 H   0  0  0  0  0  0  0  0  0  0  0  0
   53.2230   31.2326   52.6042 H   0  0  0  0  0  0  0  0  0  0  0  0
  1 14  1  0
  2  4  1  0
  3  2  2  0
  4  1  1  0
  6  7  2  0
  6  5  1  0
  7  2  1  0
  8  7  1  0
  9  8  2  0
 10  9  1  0
 10 12  2  0
 11 10  1  0
 12  6  1  0
 13 14  2  0
 13 19  1  0
 15 16  2  0
 16 21  1  0
 17 16  1  0
 17 23  1  0
 18 17  2  0
 19 20  2  0
 19 18  1  0
 20 15  1  0
 21 22  2  0
 24 23  1  0
 24 26  1  0
 25 24  1  0
 27 24  1  0
  1 28  1  0
  1 29  1  0
  4 30  1  0
  8 31  1  0
  9 32  1  0
 12 33  1  0
 13 34  1  0
 14 35  1  0
 15 36  1  0
 21 37  1  0
M  ISO  7  28   8  29   8  31  14  32  14  33  14  36  14  37   6
M  END
>  <minimizedAffinity>  (1) 
-6.4885025

>  <minimizedRMSD>  (1) 
0.24248518

$$$$
