
     RDKit          3D

 19 20  0  0  0  0  0  0  0  0999 V2000
   44.4510   35.9560   44.8800 C   0  0  0  0  0  0  0  0  0  0  0  0
   45.0790   35.9500   43.6210 C   0  0  0  0  0  0  0  0  0  0  0  0
   45.9640   34.9090   43.3460 C   0  0  0  0  0  0  0  0  0  0  0  0
   46.1660   33.9680   44.3010 N   0  0  0  0  0  0  0  0  0  0  0  0
   45.5480   34.0000   45.5010 C   0  0  0  0  0  0  0  0  0  0  0  0
   44.6950   34.9960   45.7810 N   0  0  0  0  0  0  0  0  0  0  0  0
   46.6960   34.7490   42.0970 C   0  0  0  0  0  0  0  0  0  0  0  0
   47.9190   35.3400   41.8550 C   0  0  0  0  0  0  0  0  0  0  0  0
   48.6450   35.2170   40.6910 C   0  0  0  0  0  0  0  0  0  0  0  0
   48.1260   34.4430   39.6730 C   0  0  0  0  0  0  0  0  0  0  0  0
   46.9060   33.8580   39.9280 C   0  0  0  0  0  0  0  0  0  0  0  0
   46.2350   34.0060   41.0740 N   0  0  0  0  0  0  0  0  0  0  0  0
   43.7470   36.7638   45.1286 H   0  0  0  0  0  0  0  0  0  0  0  0
   44.8788   36.7384   42.8805 H   0  0  0  0  0  0  0  0  0  0  0  0
   45.7432   33.2134   46.2448 H   0  0  0  0  0  0  0  0  0  0  0  0
   48.3488   35.9592   42.6561 H   0  0  0  0  0  0  0  0  0  0  0  0
   49.6147   35.7233   40.5756 H   0  0  0  0  0  0  0  0  0  0  0  0
   48.6537   34.3024   38.7182 H   0  0  0  0  0  0  0  0  0  0  0  0
   46.4575   33.2322   39.1424 H   0  0  0  0  0  0  0  0  0  0  0  0
  1  6  2  0
  2  1  1  0
  3  2  2  0
  3  4  1  0
  4  5  2  0
  5  6  1  0
  7  3  1  0
  8  7  2  0
  9  8  1  0
 10 11  1  0
 10  9  2  0
 11 12  2  0
 12  7  1  0
  1 13  1  0
  2 14  1  0
  5 15  1  0
  8 16  1  0
  9 17  1  0
 10 18  1  0
 11 19  1  0
M  ISO  7  13  14  14  14  15  14  16  14  17  14  18  14  19  14
M  END
>  <minimizedAffinity>  (1) 
-4.7185545

>  <minimizedRMSD>  (1) 
1.66002035

$$$$
