
     RDKit          3D

 34 37  0  0  0  0  0  0  0  0999 V2000
   46.6230   34.6880   42.0290 C   0  0  0  0  0  0  0  0  0  0  0  0
   47.8900   35.1650   41.8000 C   0  0  0  0  0  0  0  0  0  0  0  0
   48.5850   35.0040   40.6240 C   0  0  0  0  0  0  0  0  0  0  0  0
   47.9650   34.3100   39.5910 C   0  0  0  0  0  0  0  0  0  0  0  0
   46.7050   33.8430   39.8390 C   0  0  0  0  0  0  0  0  0  0  0  0
   46.0820   34.0300   41.0000 N   0  0  0  0  0  0  0  0  0  0  0  0
   45.9690   33.1010   38.8200 C   0  0  0  0  0  0  0  0  0  0  0  0
   44.8730   32.3230   39.1760 C   0  0  0  0  0  0  0  0  0  0  0  0
   44.1020   31.5810   38.3120 C   0  0  0  0  0  0  0  0  0  0  0  0
   44.4380   31.6060   36.9750 C   0  0  0  0  0  0  0  0  0  0  0  0
   43.7400   30.9130   36.0580 N   0  0  0  0  0  0  0  0  0  0  0  0
   44.0660   30.9340   34.7420 C   0  0  0  0  0  0  0  0  0  0  0  0
   45.1440   31.6860   34.3190 C   0  0  0  0  0  0  0  0  0  0  0  0
   45.8840   32.4100   35.2210 C   0  0  0  0  0  0  0  0  0  0  0  0
   45.5160   32.3620   36.5670 C   0  0  0  0  0  0  0  0  0  0  0  0
   46.2550   33.0870   37.4720 C   0  0  0  0  0  0  0  0  0  0  0  0
   44.4670   35.9740   44.8530 C   0  0  0  0  0  0  0  0  0  0  0  0
   45.0630   35.9320   43.5870 C   0  0  0  0  0  0  0  0  0  0  0  0
   45.9190   34.8820   43.2970 C   0  0  0  0  0  0  0  0  0  0  0  0
   46.1210   33.9570   44.2670 N   0  0  0  0  0  0  0  0  0  0  0  0
   45.5360   34.0150   45.4810 C   0  0  0  0  0  0  0  0  0  0  0  0
   44.7110   35.0280   45.7600 N   0  0  0  0  0  0  0  0  0  0  0  0
   48.3842   35.7148   42.6146 H   0  0  0  0  0  0  0  0  0  0  0  0
   49.5997   35.4116   40.5045 H   0  0  0  0  0  0  0  0  0  0  0  0
   48.4630   34.1454   38.6241 H   0  0  0  0  0  0  0  0  0  0  0  0
   44.5988   32.2989   40.2410 H   0  0  0  0  0  0  0  0  0  0  0  0
   43.2485   30.9892   38.6744 H   0  0  0  0  0  0  0  0  0  0  0  0
   43.4755   30.3557   34.0161 H   0  0  0  0  0  0  0  0  0  0  0  0
   45.4118   31.7052   33.2523 H   0  0  0  0  0  0  0  0  0  0  0  0
   46.7439   33.0118   34.8919 H   0  0  0  0  0  0  0  0  0  0  0  0
   47.1071   33.6785   37.1059 H   0  0  0  0  0  0  0  0  0  0  0  0
   43.7863   36.8010   45.1034 H   0  0  0  0  0  0  0  0  0  0  0  0
   44.8567   36.7135   42.8408 H   0  0  0  0  0  0  0  0  0  0  0  0
   45.7359   33.2371   46.2326 H   0  0  0  0  0  0  0  0  0  0  0  0
  1 19  1  0
  2  1  2  0
  3  2  1  0
  4  5  1  0
  4  3  2  0
  5  6  2  0
  6  1  1  0
  7  8  2  0
  7  5  1  0
  9  8  1  0
 10  9  2  0
 11 10  1  0
 12 11  2  0
 13 12  1  0
 13 14  2  0
 14 15  1  0
 15 10  1  0
 15 16  2  0
 16  7  1  0
 17 22  2  0
 18 17  1  0
 19 18  2  0
 19 20  1  0
 20 21  2  0
 21 22  1  0
  2 23  1  0
  3 24  1  0
  4 25  1  0
  8 26  1  0
  9 27  1  0
 12 28  1  0
 13 29  1  0
 14 30  1  0
 16 31  1  0
 17 32  1  0
 18 33  1  0
 21 34  1  0
M  ISO  8  23  14  24  14  25  14  26  14  27  14  28  14  29  14  30  14
M  ISO  4  31  14  32  14  33  14  34  14
M  END
>  <minimizedAffinity>  (1) 
-6.06574249

>  <minimizedRMSD>  (1) 
0.360882372

$$$$
