
     RDKit          3D

 29 31  0  0  0  0  0  0  0  0999 V2000
   46.8070   34.8110   42.0230 C   0  0  0  0  0  0  0  0  0  0  0  0
   48.0280   35.4110   41.8190 C   0  0  0  0  0  0  0  0  0  0  0  0
   48.7840   35.2940   40.6790 C   0  0  0  0  0  0  0  0  0  0  0  0
   48.2900   34.5100   39.6420 C   0  0  0  0  0  0  0  0  0  0  0  0
   47.0760   33.9210   39.8620 C   0  0  0  0  0  0  0  0  0  0  0  0
   46.3940   34.0760   40.9890 N   0  0  0  0  0  0  0  0  0  0  0  0
   44.4640   35.9860   44.7430 C   0  0  0  0  0  0  0  0  0  0  0  0
   45.1430   35.9680   43.5210 C   0  0  0  0  0  0  0  0  0  0  0  0
   46.0380   34.9540   43.2440 C   0  0  0  0  0  0  0  0  0  0  0  0
   46.2180   33.9990   44.2020 N   0  0  0  0  0  0  0  0  0  0  0  0
   45.5610   34.0230   45.3790 C   0  0  0  0  0  0  0  0  0  0  0  0
   44.6920   35.0130   45.6410 N   0  0  0  0  0  0  0  0  0  0  0  0
   47.4470   34.4230   37.1460 F   0  0  0  0  0  0  0  0  0  0  0  0
   46.6740   33.3380   37.4760 C   0  0  0  0  0  0  0  0  0  0  0  0
   46.4840   33.0810   38.8250 C   0  0  0  0  0  0  0  0  0  0  0  0
   45.6960   31.9740   39.0570 C   0  0  0  0  0  0  0  0  0  0  0  0
   45.1550   31.2080   38.0450 C   0  0  0  0  0  0  0  0  0  0  0  0
   45.3890   31.5260   36.7310 C   0  0  0  0  0  0  0  0  0  0  0  0
   46.1570   32.6030   36.4300 C   0  0  0  0  0  0  0  0  0  0  0  0
   48.4298   36.0329   42.6325 H   0  0  0  0  0  0  0  0  0  0  0  0
   49.7533   35.8060   40.5884 H   0  0  0  0  0  0  0  0  0  0  0  0
   48.8429   34.3720   38.7011 H   0  0  0  0  0  0  0  0  0  0  0  0
   43.7485   36.7907   44.9676 H   0  0  0  0  0  0  0  0  0  0  0  0
   44.9642   36.7615   42.7805 H   0  0  0  0  0  0  0  0  0  0  0  0
   45.7364   33.2328   46.1238 H   0  0  0  0  0  0  0  0  0  0  0  0
   45.4886   31.6877   40.0986 H   0  0  0  0  0  0  0  0  0  0  0  0
   44.5317   30.3363   38.2934 H   0  0  0  0  0  0  0  0  0  0  0  0
   44.9569   30.9119   35.9272 H   0  0  0  0  0  0  0  0  0  0  0  0
   46.3607   32.8810   35.3854 H   0  0  0  0  0  0  0  0  0  0  0  0
  1  9  1  0
  2  1  2  0
  3  2  1  0
  4  5  1  0
  4  3  2  0
  5  6  2  0
  6  1  1  0
  7 12  2  0
  8  7  1  0
  9  8  2  0
  9 10  1  0
 10 11  2  0
 11 12  1  0
 13 14  1  0
 14 15  2  0
 15 16  1  0
 15  5  1  0
 17 16  2  0
 18 17  1  0
 19 18  2  0
 19 14  1  0
  2 20  1  0
  3 21  1  0
  4 22  1  0
  7 23  1  0
  8 24  1  0
 11 25  1  0
 16 26  1  0
 17 27  1  0
 18 28  1  0
 19 29  1  0
M  ISO  8  20  14  21  14  22  14  23  14  24  14  25  14  26  14  27  14
M  ISO  2  28  14  29  14
M  END
>  <minimizedAffinity>  (1) 
-5.69466305

>  <minimizedRMSD>  (1) 
0.28496322

$$$$
