
     RDKit          3D

 23 24  0  0  0  0  0  0  0  0999 V2000
   46.7530   34.8240   42.0610 C   0  0  0  0  0  0  0  0  0  0  0  0
   48.0090   35.3560   41.8800 C   0  0  0  0  0  0  0  0  0  0  0  0
   48.7580   35.2690   40.7270 C   0  0  0  0  0  0  0  0  0  0  0  0
   48.2150   34.5970   39.6630 C   0  0  0  0  0  0  0  0  0  0  0  0
   46.9480   34.0630   39.8500 C   0  0  0  0  0  0  0  0  0  0  0  0
   46.2790   34.1830   40.9900 N   0  0  0  0  0  0  0  0  0  0  0  0
   46.7970   33.4230   37.4460 C   0  0  0  0  0  0  0  0  0  0  0  0
   47.7850   34.1210   37.1560 O   0  0  0  0  0  0  0  0  0  0  0  0
   46.3280   33.3530   38.7840 N   0  0  0  0  0  0  0  0  0  0  0  0
   44.4610   35.9340   44.8430 C   0  0  0  0  0  0  0  0  0  0  0  0
   45.0990   35.9710   43.5900 C   0  0  0  0  0  0  0  0  0  0  0  0
   46.0030   34.9460   43.3050 C   0  0  0  0  0  0  0  0  0  0  0  0
   46.2000   34.0040   44.2450 N   0  0  0  0  0  0  0  0  0  0  0  0
   45.5870   33.9770   45.4370 C   0  0  0  0  0  0  0  0  0  0  0  0
   44.7080   34.9630   45.7270 N   0  0  0  0  0  0  0  0  0  0  0  0
   48.4531   35.8971   42.7286 H   0  0  0  0  0  0  0  0  0  0  0  0
   49.7577   35.7234   40.6625 H   0  0  0  0  0  0  0  0  0  0  0  0
   48.7551   34.4868   38.7111 H   0  0  0  0  0  0  0  0  0  0  0  0
   46.2817   32.8544   36.6579 H   0  0  0  0  0  0  0  0  0  0  0  0
   45.5075   32.7658   38.9912 H   0  0  0  0  0  0  0  0  0  0  0  0
   43.7407   36.7242   45.1016 H   0  0  0  0  0  0  0  0  0  0  0  0
   44.8944   36.7732   42.8657 H   0  0  0  0  0  0  0  0  0  0  0  0
   45.7935   33.1741   46.1600 H   0  0  0  0  0  0  0  0  0  0  0  0
  1 12  1  0
  2  1  2  0
  3  2  1  0
  4  5  1  0
  4  3  2  0
  5  6  2  0
  6  1  1  0
  7  9  1  0
  8  7  2  0
  9  5  1  0
 10 15  2  0
 11 10  1  0
 12 11  2  0
 12 13  1  0
 13 14  2  0
 14 15  1  0
  2 16  1  0
  3 17  1  0
  4 18  1  0
  7 19  1  0
  9 20  1  0
 10 21  1  0
 11 22  1  0
 14 23  1  0
M  ISO  7  16  14  17  14  18  14  19   6  21  14  22  14  23  14
M  END
>  <minimizedAffinity>  (1) 
-5.55752611

>  <minimizedRMSD>  (1) 
0.192164823

$$$$
