
     RDKit          3D

 27 29  0  0  0  0  0  0  0  0999 V2000
   46.7050   34.7590   42.0210 C   0  0  0  0  0  0  0  0  0  0  0  0
   47.9510   35.3170   41.7970 C   0  0  0  0  0  0  0  0  0  0  0  0
   48.6850   35.1960   40.6370 C   0  0  0  0  0  0  0  0  0  0  0  0
   48.1500   34.4620   39.6040 C   0  0  0  0  0  0  0  0  0  0  0  0
   46.9110   33.9130   39.8380 C   0  0  0  0  0  0  0  0  0  0  0  0
   46.2350   34.0590   40.9880 N   0  0  0  0  0  0  0  0  0  0  0  0
   44.4760   35.9550   44.8120 C   0  0  0  0  0  0  0  0  0  0  0  0
   45.1010   35.9560   43.5510 C   0  0  0  0  0  0  0  0  0  0  0  0
   45.9740   34.9190   43.2660 C   0  0  0  0  0  0  0  0  0  0  0  0
   46.1640   33.9850   44.2160 N   0  0  0  0  0  0  0  0  0  0  0  0
   45.5600   33.9940   45.4220 C   0  0  0  0  0  0  0  0  0  0  0  0
   44.7110   34.9980   45.7050 N   0  0  0  0  0  0  0  0  0  0  0  0
   46.3060   33.1220   38.7610 C   0  0  0  0  0  0  0  0  0  0  0  0
   45.3510   32.1550   39.0410 C   0  0  0  0  0  0  0  0  0  0  0  0
   44.8600   31.4800   37.9250 C   0  0  0  0  0  0  0  0  0  0  0  0
   45.2600   31.7230   36.6720 N   0  0  0  0  0  0  0  0  0  0  0  0
   46.1880   32.6690   36.4480 C   0  0  0  0  0  0  0  0  0  0  0  0
   46.6980   33.3550   37.4960 N   0  0  0  0  0  0  0  0  0  0  0  0
   48.3930   35.9069   42.6135 H   0  0  0  0  0  0  0  0  0  0  0  0
   49.6714   35.6731   40.5398 H   0  0  0  0  0  0  0  0  0  0  0  0
   48.6801   34.3228   38.6503 H   0  0  0  0  0  0  0  0  0  0  0  0
   43.7763   36.7652   45.0650 H   0  0  0  0  0  0  0  0  0  0  0  0
   44.9033   36.7519   42.8179 H   0  0  0  0  0  0  0  0  0  0  0  0
   45.7571   33.1992   46.1565 H   0  0  0  0  0  0  0  0  0  0  0  0
   45.0084   31.9382   40.0636 H   0  0  0  0  0  0  0  0  0  0  0  0
   44.0989   30.7018   38.0839 H   0  0  0  0  0  0  0  0  0  0  0  0
   46.5287   32.8828   35.4242 H   0  0  0  0  0  0  0  0  0  0  0  0
  1  9  1  0
  2  1  2  0
  3  2  1  0
  4  5  1  0
  4  3  2  0
  5  6  2  0
  6  1  1  0
  7 12  2  0
  8  7  1  0
  9  8  2  0
  9 10  1  0
 10 11  2  0
 11 12  1  0
 13 14  2  0
 13  5  1  0
 15 14  1  0
 16 15  2  0
 17 16  1  0
 17 18  2  0
 18 13  1  0
  2 19  1  0
  3 20  1  0
  4 21  1  0
  7 22  1  0
  8 23  1  0
 11 24  1  0
 14 25  1  0
 15 26  1  0
 17 27  1  0
M  ISO  8  19  14  20  14  21  14  22  14  23  14  24  14  25  14  26  14
M  ISO  1  27  14
M  END
>  <minimizedAffinity>  (1) 
-5.41194105

>  <minimizedRMSD>  (1) 
0.502138376

$$$$
