
     RDKit          3D

 22 23  0  0  0  0  0  0  0  0999 V2000
   46.7680   34.7870   42.1110 C   0  0  0  0  0  0  0  0  0  0  0  0
   47.9880   35.3780   41.9050 C   0  0  0  0  0  0  0  0  0  0  0  0
   48.7290   35.2830   40.7470 C   0  0  0  0  0  0  0  0  0  0  0  0
   48.2270   34.5440   39.7060 C   0  0  0  0  0  0  0  0  0  0  0  0
   46.9940   33.9460   39.9180 C   0  0  0  0  0  0  0  0  0  0  0  0
   46.3090   34.0670   41.0580 N   0  0  0  0  0  0  0  0  0  0  0  0
   44.4580   35.9280   44.8660 C   0  0  0  0  0  0  0  0  0  0  0  0
   45.1060   35.9460   43.6210 C   0  0  0  0  0  0  0  0  0  0  0  0
   46.0180   34.9140   43.3480 C   0  0  0  0  0  0  0  0  0  0  0  0
   46.2110   33.9790   44.2950 N   0  0  0  0  0  0  0  0  0  0  0  0
   45.5760   33.9820   45.4850 C   0  0  0  0  0  0  0  0  0  0  0  0
   44.7070   34.9520   45.7640 N   0  0  0  0  0  0  0  0  0  0  0  0
   46.3550   33.1260   38.8660 C   0  0  0  0  0  0  0  0  0  0  0  0
   44.9700   33.2040   38.9350 F   0  0  0  0  0  0  0  0  0  0  0  0
   46.7450   31.8010   38.9660 F   0  0  0  0  0  0  0  0  0  0  0  0
   46.7250   33.6040   37.6160 F   0  0  0  0  0  0  0  0  0  0  0  0
   48.4080   35.9745   42.7283 H   0  0  0  0  0  0  0  0  0  0  0  0
   49.7019   35.7888   40.6593 H   0  0  0  0  0  0  0  0  0  0  0  0
   48.7717   34.4321   38.7569 H   0  0  0  0  0  0  0  0  0  0  0  0
   43.7368   36.7209   45.1132 H   0  0  0  0  0  0  0  0  0  0  0  0
   44.9066   36.7397   42.8860 H   0  0  0  0  0  0  0  0  0  0  0  0
   45.7746   33.1884   46.2204 H   0  0  0  0  0  0  0  0  0  0  0  0
  1  9  1  0
  2  1  2  0
  3  2  1  0
  4  5  1  0
  4  3  2  0
  5  6  2  0
  6  1  1  0
  7 12  2  0
  8  7  1  0
  9  8  2  0
  9 10  1  0
 10 11  2  0
 11 12  1  0
 13 14  1  0
 13 15  1  0
 13  5  1  0
 16 13  1  0
  2 17  1  0
  3 18  1  0
  4 19  1  0
  7 20  1  0
  8 21  1  0
 11 22  1  0
M  ISO  6  17  14  18  14  19  14  20  14  21  14  22  14
M  END
>  <minimizedAffinity>  (1) 
-5.09429073

>  <minimizedRMSD>  (1) 
0.169873804

$$$$
