
     RDKit          3D

 20 21  0  0  0  0  0  0  0  0999 V2000
   46.6970   34.7560   42.0940 C   0  0  0  0  0  0  0  0  0  0  0  0
   47.9310   35.3270   41.8610 C   0  0  0  0  0  0  0  0  0  0  0  0
   48.6460   35.2010   40.6940 C   0  0  0  0  0  0  0  0  0  0  0  0
   48.1230   34.4600   39.6640 C   0  0  0  0  0  0  0  0  0  0  0  0
   46.8930   33.8960   39.9100 C   0  0  0  0  0  0  0  0  0  0  0  0
   46.2280   34.0390   41.0560 N   0  0  0  0  0  0  0  0  0  0  0  0
   44.4520   35.9540   44.8790 C   0  0  0  0  0  0  0  0  0  0  0  0
   45.0800   35.9520   43.6180 C   0  0  0  0  0  0  0  0  0  0  0  0
   45.9700   34.9080   43.3380 C   0  0  0  0  0  0  0  0  0  0  0  0
   46.1720   33.9650   44.2960 N   0  0  0  0  0  0  0  0  0  0  0  0
   45.5530   33.9950   45.4960 C   0  0  0  0  0  0  0  0  0  0  0  0
   44.6970   34.9950   45.7720 N   0  0  0  0  0  0  0  0  0  0  0  0
   46.2600   33.1220   38.9420 O   0  0  0  0  0  0  0  0  0  0  0  0
   48.3754   35.9273   42.6686 H   0  0  0  0  0  0  0  0  0  0  0  0
   49.6262   35.6885   40.5868 H   0  0  0  0  0  0  0  0  0  0  0  0
   48.6508   34.3265   38.7082 H   0  0  0  0  0  0  0  0  0  0  0  0
   43.7476   36.7604   45.1310 H   0  0  0  0  0  0  0  0  0  0  0  0
   44.8784   36.7422   42.8798 H   0  0  0  0  0  0  0  0  0  0  0  0
   45.7471   33.2090   46.2406 H   0  0  0  0  0  0  0  0  0  0  0  0
   45.3746   32.7209   39.1300 H   0  0  0  0  0  0  0  0  0  0  0  0
  1  9  1  0
  2  1  2  0
  3  2  1  0
  4  5  1  0
  4  3  2  0
  5  6  2  0
  6  1  1  0
  7 12  2  0
  8  7  1  0
  9  8  2  0
  9 10  1  0
 10 11  2  0
 11 12  1  0
 13  5  1  0
  2 14  1  0
  3 15  1  0
  4 16  1  0
  7 17  1  0
  8 18  1  0
 11 19  1  0
 13 20  1  0
M  ISO  7  14  14  15  14  16  14  17  14  18  14  19  14  20   3
M  END
>  <minimizedAffinity>  (1) 
-4.89625359

>  <minimizedRMSD>  (1) 
0.0306689907

$$$$
