
     RDKit          3D

 21 22  0  0  0  0  0  0  0  0999 V2000
   46.7130   34.7560   42.1110 C   0  0  0  0  0  0  0  0  0  0  0  0
   47.9260   35.3400   41.8590 C   0  0  0  0  0  0  0  0  0  0  0  0
   48.6520   35.2240   40.7010 C   0  0  0  0  0  0  0  0  0  0  0  0
   48.1360   34.4580   39.6840 C   0  0  0  0  0  0  0  0  0  0  0  0
   46.9080   33.8670   39.9410 C   0  0  0  0  0  0  0  0  0  0  0  0
   46.2340   34.0080   41.0900 N   0  0  0  0  0  0  0  0  0  0  0  0
   46.2340   33.0380   38.9880 N   0  0  0  0  0  0  0  0  0  0  0  0
   44.4500   35.9530   44.8840 C   0  0  0  0  0  0  0  0  0  0  0  0
   45.0850   35.9520   43.6270 C   0  0  0  0  0  0  0  0  0  0  0  0
   45.9770   34.9060   43.3550 C   0  0  0  0  0  0  0  0  0  0  0  0
   46.1730   33.9740   44.3040 N   0  0  0  0  0  0  0  0  0  0  0  0
   45.5570   33.9940   45.5000 C   0  0  0  0  0  0  0  0  0  0  0  0
   44.6920   34.9910   45.7850 N   0  0  0  0  0  0  0  0  0  0  0  0
   48.3578   35.9592   42.6591 H   0  0  0  0  0  0  0  0  0  0  0  0
   49.6218   35.7310   40.5896 H   0  0  0  0  0  0  0  0  0  0  0  0
   48.6627   34.3222   38.7279 H   0  0  0  0  0  0  0  0  0  0  0  0
   45.3225   32.6197   39.2228 H   0  0  0  0  0  0  0  0  0  0  0  0
   46.6606   32.8599   38.0675 H   0  0  0  0  0  0  0  0  0  0  0  0
   43.7424   36.7582   45.1308 H   0  0  0  0  0  0  0  0  0  0  0  0
   44.8884   36.7419   42.8871 H   0  0  0  0  0  0  0  0  0  0  0  0
   45.7564   33.2046   46.2396 H   0  0  0  0  0  0  0  0  0  0  0  0
  1 10  1  0
  2  1  2  0
  3  2  1  0
  4  5  1  0
  4  3  2  0
  5  6  2  0
  6  1  1  0
  7  5  1  0
  8 13  2  0
  9  8  1  0
 10  9  2  0
 10 11  1  0
 11 12  2  0
 12 13  1  0
  2 14  1  0
  3 15  1  0
  4 16  1  0
  7 17  1  0
  7 18  1  0
  8 19  1  0
  9 20  1  0
 12 21  1  0
M  ISO  6  14  14  15  14  16  14  19  14  20  14  21  14
M  END
>  <minimizedAffinity>  (1) 
-4.88528538

>  <minimizedRMSD>  (1) 
0.0132524027

$$$$
