
     RDKit          3D

 33 36  0  0  1  0  0  0  0  0999 V2000
   46.6960   34.7520   42.1200 C   0  0  0  0  0  0  0  0  0  0  0  0
   47.9420   35.3410   41.9000 C   0  0  0  0  0  0  0  0  0  0  0  0
   48.6740   35.2230   40.7440 C   0  0  0  0  0  0  0  0  0  0  0  0
   48.1520   34.4620   39.7070 C   0  0  0  0  0  0  0  0  0  0  0  0
   46.9340   33.8970   39.9460 C   0  0  0  0  0  0  0  0  0  0  0  0
   46.2440   34.0320   41.0870 N   0  0  0  0  0  0  0  0  0  0  0  0
   44.4500   35.9490   44.8950 C   0  0  0  0  0  0  0  0  0  0  0  0
   45.0820   35.9450   43.6340 C   0  0  0  0  0  0  0  0  0  0  0  0
   45.9590   34.9100   43.3680 C   0  0  0  0  0  0  0  0  0  0  0  0
   46.1620   33.9750   44.3130 N   0  0  0  0  0  0  0  0  0  0  0  0
   45.5420   34.0020   45.5180 C   0  0  0  0  0  0  0  0  0  0  0  0
   44.6910   35.0030   45.7810 N   0  0  0  0  0  0  0  0  0  0  0  0
   46.3550   33.0770   38.8440 C   0  0  2  0  0  0  0  0  0  0  0  0
   46.8300   31.6540   38.7820 C   0  0  0  0  0  0  0  0  0  0  0  0
   47.1920   32.6810   37.7250 C   0  0  1  0  0  0  0  0  0  0  0  0
   46.5370   32.5900   36.3950 C   0  0  0  0  0  0  0  0  0  0  0  0
   47.0540   31.9470   35.2670 C   0  0  0  0  0  0  0  0  0  0  0  0
   46.1550   32.0790   34.2260 C   0  0  0  0  0  0  0  0  0  0  0  0
   45.1360   32.7850   34.7360 N   0  0  0  0  0  0  0  0  0  0  0  0
   45.3490   33.0920   36.0130 N   0  0  0  0  0  0  0  0  0  0  0  0
   48.3699   35.9451   42.7136 H   0  0  0  0  0  0  0  0  0  0  0  0
   49.6503   35.7195   40.6423 H   0  0  0  0  0  0  0  0  0  0  0  0
   48.6857   34.3238   38.7551 H   0  0  0  0  0  0  0  0  0  0  0  0
   43.7440   36.7552   45.1434 H   0  0  0  0  0  0  0  0  0  0  0  0
   44.8851   36.7333   42.8925 H   0  0  0  0  0  0  0  0  0  0  0  0
   45.7336   33.2178   46.2651 H   0  0  0  0  0  0  0  0  0  0  0  0
   45.3816   33.5863   38.8991 H   0  0  0  0  0  0  0  0  0  0  0  0
   47.5908   31.2897   39.4880 H   0  0  0  0  0  0  0  0  0  0  0  0
   46.3584   30.6603   38.7923 H   0  0  0  0  0  0  0  0  0  0  0  0
   48.1407   33.0326   37.2932 H   0  0  0  0  0  0  0  0  0  0  0  0
   48.0191   31.4216   35.2162 H   0  0  0  0  0  0  0  0  0  0  0  0
   46.2539   31.6896   33.2020 H   0  0  0  0  0  0  0  0  0  0  0  0
   44.2949   33.0555   34.2065 H   0  0  0  0  0  0  0  0  0  0  0  0
  1  9  1  0
  2  1  2  0
  3  2  1  0
  4  5  1  0
  4  3  2  0
  5  6  2  0
  6  1  1  0
  7 12  2  0
  8  7  1  0
  9  8  2  0
  9 10  1  0
 10 11  2  0
 11 12  1  0
 13  5  1  0
 14 13  1  0
 15 14  1  0
 15 13  1  0
 16 15  1  0
 17 16  1  0
 18 19  1  0
 18 17  2  0
 19 20  1  0
 20 16  2  0
  2 21  1  0
  3 22  1  0
  4 23  1  0
  7 24  1  0
  8 25  1  0
 11 26  1  0
 13 27  1  6
 14 28  1  0
 14 29  1  0
 15 30  1  6
 17 31  1  0
 18 32  1  0
 19 33  1  0
M  ISO  8  21  14  22  14  23  14  24  14  25  14  26  14  27  13  28  13
M  ISO  5  29  13  30  13  31  14  32  14  33   9
M  END
>  <minimizedAffinity>  (1) 
-6.05143261

>  <minimizedRMSD>  (1) 
0.749719322

$$$$
