
     RDKit          3D

 40 43  0  0  1  0  0  0  0  0999 V2000
   46.7240   34.7640   42.0300 C   0  0  0  0  0  0  0  0  0  0  0  0
   47.9540   35.3690   41.8000 C   0  0  0  0  0  0  0  0  0  0  0  0
   48.6920   35.2530   40.6490 C   0  0  0  0  0  0  0  0  0  0  0  0
   48.1850   34.4750   39.6260 C   0  0  0  0  0  0  0  0  0  0  0  0
   46.9790   33.8890   39.8660 C   0  0  0  0  0  0  0  0  0  0  0  0
   46.2870   34.0220   40.9990 N   0  0  0  0  0  0  0  0  0  0  0  0
   44.4740   35.9690   44.7930 C   0  0  0  0  0  0  0  0  0  0  0  0
   45.1100   35.9590   43.5400 C   0  0  0  0  0  0  0  0  0  0  0  0
   45.9890   34.9220   43.2670 C   0  0  0  0  0  0  0  0  0  0  0  0
   46.1890   33.9710   44.2210 N   0  0  0  0  0  0  0  0  0  0  0  0
   45.5540   34.0160   45.4220 C   0  0  0  0  0  0  0  0  0  0  0  0
   44.7050   35.0120   45.6930 N   0  0  0  0  0  0  0  0  0  0  0  0
   46.4060   33.0450   38.7850 C   0  0  2  0  0  0  0  0  0  0  0  0
   46.5970   31.5600   38.9570 C   0  0  0  0  0  0  0  0  0  0  0  0
   47.3020   32.3250   37.8770 C   0  0  1  0  0  0  0  0  0  0  0  0
   46.9380   32.0050   36.4640 C   0  0  0  0  0  0  0  0  0  0  0  0
   47.9690   32.5860   35.4880 C   0  0  0  0  0  0  0  0  0  0  0  0
   47.7560   31.8270   34.1940 C   0  0  0  0  0  0  0  0  0  0  0  0
   46.4480   31.3770   34.0710 O   0  0  0  0  0  0  0  0  0  0  0  0
   45.5000   32.2720   34.5240 C   0  0  0  0  0  0  0  0  0  0  0  0
   45.6130   32.5690   36.0140 C   0  0  0  0  0  0  0  0  0  0  0  0
   48.3696   35.9914   42.6062 H   0  0  0  0  0  0  0  0  0  0  0  0
   49.6599   35.7650   40.5438 H   0  0  0  0  0  0  0  0  0  0  0  0
   48.7222   34.3373   38.6761 H   0  0  0  0  0  0  0  0  0  0  0  0
   43.7728   36.7809   45.0361 H   0  0  0  0  0  0  0  0  0  0  0  0
   44.9167   36.7488   42.7992 H   0  0  0  0  0  0  0  0  0  0  0  0
   45.7390   33.2322   46.1713 H   0  0  0  0  0  0  0  0  0  0  0  0
   45.5606   33.7288   38.6184 H   0  0  0  0  0  0  0  0  0  0  0  0
   47.1597   31.1692   39.8176 H   0  0  0  0  0  0  0  0  0  0  0  0
   45.9375   30.6805   38.9971 H   0  0  0  0  0  0  0  0  0  0  0  0
   48.3417   32.5076   37.5678 H   0  0  0  0  0  0  0  0  0  0  0  0
   46.8953   30.9059   36.4511 H   0  0  0  0  0  0  0  0  0  0  0  0
   47.7958   33.6619   35.3380 H   0  0  0  0  0  0  0  0  0  0  0  0
   48.9977   32.4817   35.8635 H   0  0  0  0  0  0  0  0  0  0  0  0
   47.9848   32.4926   33.3487 H   0  0  0  0  0  0  0  0  0  0  0  0
   48.4209   30.9507   34.1974 H   0  0  0  0  0  0  0  0  0  0  0  0
   45.6179   33.2152   33.9703 H   0  0  0  0  0  0  0  0  0  0  0  0
   44.5141   31.8134   34.3577 H   0  0  0  0  0  0  0  0  0  0  0  0
   45.5832   33.6547   36.1884 H   0  0  0  0  0  0  0  0  0  0  0  0
   44.7790   32.1201   36.5734 H   0  0  0  0  0  0  0  0  0  0  0  0
  1  9  1  0
  2  1  2  0
  3  2  1  0
  4  5  1  0
  4  3  2  0
  5  6  2  0
  6  1  1  0
  7 12  2  0
  8  7  1  0
  9  8  2  0
  9 10  1  0
 10 11  2  0
 11 12  1  0
 13 14  1  0
 13  5  1  0
 15 13  1  0
 15 14  1  0
 16 15  1  0
 17 16  1  0
 18 17  1  0
 19 18  1  0
 19 20  1  0
 20 21  1  0
 21 16  1  0
  2 22  1  0
  3 23  1  0
  4 24  1  0
  7 25  1  0
  8 26  1  0
 11 27  1  0
 13 28  1  6
 14 29  1  0
 14 30  1  0
 15 31  1  6
 16 32  1  0
 17 33  1  0
 17 34  1  0
 18 35  1  0
 18 36  1  0
 20 37  1  0
 20 38  1  0
 21 39  1  0
 21 40  1  0
M  ISO  8  22  14  23  14  24  14  25  14  26  14  27  14  28  13  29  13
M  ISO  8  30  13  31  13  32  13  33  13  34  13  35  13  36  13  37  13
M  ISO  3  38  13  39  13  40  13
M  END
>  <minimizedAffinity>  (1) 
-5.8119173

>  <minimizedRMSD>  (1) 
1.13564563

$$$$
