
     RDKit          3D

 36 39  0  0  1  0  0  0  0  0999 V2000
   47.1240   33.2610   43.9450 C   0  0  0  0  0  0  0  0  0  0  0  0
   48.2990   33.3220   43.2230 C   0  0  0  0  0  0  0  0  0  0  0  0
   48.4630   34.0060   42.0410 C   0  0  0  0  0  0  0  0  0  0  0  0
   47.3780   34.6880   41.5270 C   0  0  0  0  0  0  0  0  0  0  0  0
   46.2290   34.6140   42.2560 C   0  0  0  0  0  0  0  0  0  0  0  0
   46.1100   33.9380   43.4000 N   0  0  0  0  0  0  0  0  0  0  0  0
   46.4440   32.1830   47.4940 C   0  0  0  0  0  0  0  0  0  0  0  0
   46.4920   33.0290   46.3730 C   0  0  0  0  0  0  0  0  0  0  0  0
   47.0060   32.5200   45.1930 C   0  0  0  0  0  0  0  0  0  0  0  0
   47.4410   31.2300   45.1770 N   0  0  0  0  0  0  0  0  0  0  0  0
   47.3820   30.4340   46.2830 C   0  0  0  0  0  0  0  0  0  0  0  0
   46.8840   30.9340   47.4150 N   0  0  0  0  0  0  0  0  0  0  0  0
   45.0490   35.3430   41.7160 C   0  0  2  0  0  0  0  0  0  0  0  0
   44.2710   36.1530   42.7130 C   0  0  0  0  0  0  0  0  0  0  0  0
   43.7030   34.9080   42.0530 C   0  0  1  0  0  0  0  0  0  0  0  0
   42.5570   35.1010   41.1040 C   0  0  0  0  0  0  0  0  0  0  0  0
   41.3000   35.4130   41.6260 C   0  0  0  0  0  0  0  0  0  0  0  0
   40.2250   35.5940   40.7580 C   0  0  0  0  0  0  0  0  0  0  0  0
   40.4530   35.4570   39.3910 C   0  0  0  0  0  0  0  0  0  0  0  0
   41.7110   35.1460   38.8870 C   0  0  0  0  0  0  0  0  0  0  0  0
   42.7870   34.9630   39.7500 C   0  0  0  0  0  0  0  0  0  0  0  0
   49.1702   32.7827   43.6233 H   0  0  0  0  0  0  0  0  0  0  0  0
   49.4316   34.0096   41.5197 H   0  0  0  0  0  0  0  0  0  0  0  0
   47.4374   35.2561   40.5869 H   0  0  0  0  0  0  0  0  0  0  0  0
   46.0383   32.5594   48.4446 H   0  0  0  0  0  0  0  0  0  0  0  0
   46.1312   34.0665   46.4316 H   0  0  0  0  0  0  0  0  0  0  0  0
   47.7399   29.3947   46.2421 H   0  0  0  0  0  0  0  0  0  0  0  0
   45.5467   35.5338   40.7538 H   0  0  0  0  0  0  0  0  0  0  0  0
   44.5484   36.1415   43.7774 H   0  0  0  0  0  0  0  0  0  0  0  0
   43.9664   37.2052   42.8134 H   0  0  0  0  0  0  0  0  0  0  0  0
   43.2891   33.9444   42.3851 H   0  0  0  0  0  0  0  0  0  0  0  0
   41.1597   35.5149   42.7122 H   0  0  0  0  0  0  0  0  0  0  0  0
   39.2236   35.8384   41.1421 H   0  0  0  0  0  0  0  0  0  0  0  0
   39.6159   35.5985   38.6916 H   0  0  0  0  0  0  0  0  0  0  0  0
   41.8562   35.0442   37.8014 H   0  0  0  0  0  0  0  0  0  0  0  0
   43.7879   34.7165   39.3659 H   0  0  0  0  0  0  0  0  0  0  0  0
  1  9  1  0
  2  1  2  0
  3  2  1  0
  4  3  2  0
  4  5  1  0
  5  6  2  0
  6  1  1  0
  8  7  2  0
  9  8  1  0
 10  9  2  0
 10 11  1  0
 11 12  2  0
 12  7  1  0
 13 15  1  0
 13  5  1  0
 13 14  1  0
 15 14  1  0
 16 17  2  0
 16 15  1  0
 18 17  1  0
 19 18  2  0
 20 19  1  0
 20 21  2  0
 21 16  1  0
  2 22  1  0
  3 23  1  0
  4 24  1  0
  7 25  1  0
  8 26  1  0
 11 27  1  0
 13 28  1  6
 14 29  1  0
 14 30  1  0
 15 31  1  1
 17 32  1  0
 18 33  1  0
 19 34  1  0
 20 35  1  0
 21 36  1  0
M  ISO  8  22  14  23  14  24  14  25  14  26  14  27  14  28  13  29  13
M  ISO  7  30  13  31  13  32  14  33  14  34  14  35  14  36  14
M  END
>  <minimizedAffinity>  (1) 
-5.75812387

>  <minimizedRMSD>  (1) 
4.87167931

$$$$
