
     RDKit          3D

 41 44  0  0  1  0  0  0  0  0999 V2000
   46.6990   34.6860   41.9670 C   0  0  0  0  0  0  0  0  0  0  0  0
   47.8940   35.3400   41.6690 C   0  0  0  0  0  0  0  0  0  0  0  0
   48.6140   35.1890   40.5110 C   0  0  0  0  0  0  0  0  0  0  0  0
   48.1290   34.3180   39.5470 C   0  0  0  0  0  0  0  0  0  0  0  0
   46.9600   33.6890   39.8550 C   0  0  0  0  0  0  0  0  0  0  0  0
   46.2880   33.8650   40.9990 N   0  0  0  0  0  0  0  0  0  0  0  0
   44.5010   35.9930   44.7260 C   0  0  0  0  0  0  0  0  0  0  0  0
   45.1290   35.9420   43.4680 C   0  0  0  0  0  0  0  0  0  0  0  0
   45.9780   34.8830   43.2080 C   0  0  0  0  0  0  0  0  0  0  0  0
   46.1540   33.9660   44.1730 N   0  0  0  0  0  0  0  0  0  0  0  0
   45.5430   34.0300   45.3760 C   0  0  0  0  0  0  0  0  0  0  0  0
   44.7130   35.0600   45.6350 N   0  0  0  0  0  0  0  0  0  0  0  0
   46.4180   32.7490   38.8370 C   0  0  2  0  0  0  0  0  0  0  0  0
   47.3930   32.2260   37.8430 C   0  0  0  0  0  0  0  0  0  0  0  0
   46.2990   33.1960   37.4470 C   0  0  1  0  0  0  0  0  0  0  0  0
   45.1840   32.6330   36.6970 N   0  0  0  0  0  0  0  0  0  0  0  0
   45.5920   32.4380   35.3310 C   0  0  0  0  0  0  0  0  0  0  0  0
   45.0120   31.2600   34.6380 C   0  0  0  0  0  0  0  0  0  0  0  0
   43.7290   30.7310   35.1630 C   0  0  0  0  0  0  0  0  0  0  0  0
   43.3980   31.0880   36.5790 C   0  0  0  0  0  0  0  0  0  0  0  0
   44.6850   31.4210   37.3090 C   0  0  0  0  0  0  0  0  0  0  0  0
   48.2919   36.0338   42.4242 H   0  0  0  0  0  0  0  0  0  0  0  0
   49.5504   35.7437   40.3515 H   0  0  0  0  0  0  0  0  0  0  0  0
   48.6538   34.1460   38.5957 H   0  0  0  0  0  0  0  0  0  0  0  0
   43.8206   36.8261   44.9562 H   0  0  0  0  0  0  0  0  0  0  0  0
   44.9495   36.7221   42.7136 H   0  0  0  0  0  0  0  0  0  0  0  0
   45.7203   33.2525   46.1336 H   0  0  0  0  0  0  0  0  0  0  0  0
   45.7045   32.3041   39.5462 H   0  0  0  0  0  0  0  0  0  0  0  0
   48.4424   32.5548   37.8698 H   0  0  0  0  0  0  0  0  0  0  0  0
   47.7200   31.2299   37.5102 H   0  0  0  0  0  0  0  0  0  0  0  0
   46.2711   34.1708   36.9380 H   0  0  0  0  0  0  0  0  0  0  0  0
   45.3065   33.3360   34.7635 H   0  0  0  0  0  0  0  0  0  0  0  0
   46.6758   32.2541   35.3697 H   0  0  0  0  0  0  0  0  0  0  0  0
   45.7516   30.4475   34.6903 H   0  0  0  0  0  0  0  0  0  0  0  0
   44.7799   31.6131   33.6224 H   0  0  0  0  0  0  0  0  0  0  0  0
   42.9207   31.1137   34.5225 H   0  0  0  0  0  0  0  0  0  0  0  0
   43.8348   29.6362   35.1519 H   0  0  0  0  0  0  0  0  0  0  0  0
   42.7275   31.9599   36.5941 H   0  0  0  0  0  0  0  0  0  0  0  0
   42.8953   30.2425   37.0714 H   0  0  0  0  0  0  0  0  0  0  0  0
   45.4135   30.6051   37.1923 H   0  0  0  0  0  0  0  0  0  0  0  0
   44.5156   31.5527   38.3879 H   0  0  0  0  0  0  0  0  0  0  0  0
  1  9  1  0
  2  1  2  0
  3  2  1  0
  4  5  1  0
  4  3  2  0
  5  6  2  0
  6  1  1  0
  7 12  2  0
  8  7  1  0
  9  8  2  0
  9 10  1  0
 10 11  2  0
 11 12  1  0
 13  5  1  0
 14 13  1  0
 15 14  1  0
 15 13  1  0
 16 21  1  0
 16 15  1  0
 17 16  1  0
 18 19  1  0
 18 17  1  0
 19 20  1  0
 20 21  1  0
  2 22  1  0
  3 23  1  0
  4 24  1  0
  7 25  1  0
  8 26  1  0
 11 27  1  0
 13 28  1  1
 14 29  1  0
 14 30  1  0
 15 31  1  1
 17 32  1  0
 17 33  1  0
 18 34  1  0
 18 35  1  0
 19 36  1  0
 19 37  1  0
 20 38  1  0
 20 39  1  0
 21 40  1  0
 21 41  1  0
M  ISO  8  22  14  23  14  24  14  25  14  26  14  27  14  28  13  29  13
M  ISO  8  30  13  31  13  32  13  33  13  34  13  35  13  36  13  37  13
M  ISO  4  38  13  39  13  40  13  41  13
M  END
>  <minimizedAffinity>  (1) 
-5.67648029

>  <minimizedRMSD>  (1) 
0.599596322

$$$$
