
     RDKit          3D

 28 30  0  0  1  0  0  0  0  0999 V2000
   46.6690   34.7280   42.0920 C   0  0  0  0  0  0  0  0  0  0  0  0
   47.8800   35.3320   41.8210 C   0  0  0  0  0  0  0  0  0  0  0  0
   48.6010   35.2050   40.6660 C   0  0  0  0  0  0  0  0  0  0  0  0
   48.0850   34.4000   39.6630 C   0  0  0  0  0  0  0  0  0  0  0  0
   46.8890   33.8050   39.9330 C   0  0  0  0  0  0  0  0  0  0  0  0
   46.2200   33.9590   41.0790 N   0  0  0  0  0  0  0  0  0  0  0  0
   44.4550   35.9810   44.8690 C   0  0  0  0  0  0  0  0  0  0  0  0
   45.0830   35.9430   43.6130 C   0  0  0  0  0  0  0  0  0  0  0  0
   45.9460   34.9010   43.3420 C   0  0  0  0  0  0  0  0  0  0  0  0
   46.1480   33.9680   44.2890 N   0  0  0  0  0  0  0  0  0  0  0  0
   45.5310   34.0180   45.4990 C   0  0  0  0  0  0  0  0  0  0  0  0
   44.6960   35.0250   45.7630 N   0  0  0  0  0  0  0  0  0  0  0  0
   46.3220   32.9380   38.8680 C   0  0  2  0  0  0  0  0  0  0  0  0
   47.3230   32.1150   38.1050 C   0  0  0  0  0  0  0  0  0  0  0  0
   46.5510   33.2600   37.4720 C   0  0  1  0  0  0  0  0  0  0  0  0
   45.4780   32.8470   36.4950 C   0  0  0  0  0  0  0  0  0  0  0  0
   45.7090   32.6100   35.3050 O   0  0  0  0  0  0  0  0  0  0  0  0
   48.3043   35.9747   42.6064 H   0  0  0  0  0  0  0  0  0  0  0  0
   49.5612   35.7259   40.5370 H   0  0  0  0  0  0  0  0  0  0  0  0
   48.6087   34.2504   38.7073 H   0  0  0  0  0  0  0  0  0  0  0  0
   43.7639   36.8011   45.1137 H   0  0  0  0  0  0  0  0  0  0  0  0
   44.8914   36.7251   42.8636 H   0  0  0  0  0  0  0  0  0  0  0  0
   45.7177   33.2378   46.2516 H   0  0  0  0  0  0  0  0  0  0  0  0
   45.4041   32.7413   39.4414 H   0  0  0  0  0  0  0  0  0  0  0  0
   48.3990   32.2149   38.3107 H   0  0  0  0  0  0  0  0  0  0  0  0
   47.4732   31.0464   37.8918 H   0  0  0  0  0  0  0  0  0  0  0  0
   46.8170   34.1811   36.9328 H   0  0  0  0  0  0  0  0  0  0  0  0
   44.4441   32.7528   36.8586 H   0  0  0  0  0  0  0  0  0  0  0  0
  1  9  1  0
  2  1  2  0
  3  2  1  0
  4  5  1  0
  4  3  2  0
  5  6  2  0
  6  1  1  0
  7 12  2  0
  8  7  1  0
  9  8  2  0
  9 10  1  0
 10 11  2  0
 11 12  1  0
 13  5  1  0
 14 13  1  0
 15 14  1  0
 15 13  1  0
 16 15  1  0
 17 16  2  0
  2 18  1  0
  3 19  1  0
  4 20  1  0
  7 21  1  0
  8 22  1  0
 11 23  1  0
 13 24  1  6
 14 25  1  0
 14 26  1  0
 15 27  1  1
 16 28  1  0
M  ISO  8  18  14  19  14  20  14  21  14  22  14  23  14  24  13  25  13
M  ISO  3  26  13  27  13  28   6
M  END
>  <minimizedAffinity>  (1) 
-5.14585018

>  <minimizedRMSD>  (1) 
0.164629087

$$$$
