
     RDKit          3D

 29 31  0  0  1  0  0  0  0  0999 V2000
   46.7020   34.7510   42.0990 C   0  0  0  0  0  0  0  0  0  0  0  0
   47.9320   35.3260   41.8690 C   0  0  0  0  0  0  0  0  0  0  0  0
   48.6640   35.2230   40.7150 C   0  0  0  0  0  0  0  0  0  0  0  0
   48.1290   34.4740   39.6760 C   0  0  0  0  0  0  0  0  0  0  0  0
   46.9010   33.9060   39.9180 C   0  0  0  0  0  0  0  0  0  0  0  0
   46.2410   34.0450   41.0640 N   0  0  0  0  0  0  0  0  0  0  0  0
   44.4550   35.9450   44.8790 C   0  0  0  0  0  0  0  0  0  0  0  0
   45.0850   35.9380   43.6250 C   0  0  0  0  0  0  0  0  0  0  0  0
   45.9760   34.8980   43.3440 C   0  0  0  0  0  0  0  0  0  0  0  0
   46.1710   33.9710   44.2940 N   0  0  0  0  0  0  0  0  0  0  0  0
   45.5580   33.9880   45.5000 C   0  0  0  0  0  0  0  0  0  0  0  0
   44.7050   34.9810   45.7710 N   0  0  0  0  0  0  0  0  0  0  0  0
   46.3020   33.0960   38.8170 C   0  0  2  0  0  0  0  0  0  0  0  0
   46.7370   31.6530   38.7790 C   0  0  0  0  0  0  0  0  0  0  0  0
   47.1560   32.6380   37.7340 C   0  0  1  0  0  0  0  0  0  0  0  0
   46.5870   32.5260   36.3340 C   0  0  0  0  0  0  0  0  0  0  0  0
   48.3662   35.9218   42.6854 H   0  0  0  0  0  0  0  0  0  0  0  0
   49.6418   35.7169   40.6155 H   0  0  0  0  0  0  0  0  0  0  0  0
   48.6549   34.3432   38.7188 H   0  0  0  0  0  0  0  0  0  0  0  0
   43.7494   36.7506   45.1302 H   0  0  0  0  0  0  0  0  0  0  0  0
   44.8838   36.7271   42.8855 H   0  0  0  0  0  0  0  0  0  0  0  0
   45.7574   33.2010   46.2422 H   0  0  0  0  0  0  0  0  0  0  0  0
   45.3470   33.6413   38.8414 H   0  0  0  0  0  0  0  0  0  0  0  0
   47.4668   31.2731   39.5091 H   0  0  0  0  0  0  0  0  0  0  0  0
   46.2329   30.6754   38.7864 H   0  0  0  0  0  0  0  0  0  0  0  0
   48.1254   32.9633   37.3286 H   0  0  0  0  0  0  0  0  0  0  0  0
   45.5092   32.3139   36.3921 H   0  0  0  0  0  0  0  0  0  0  0  0
   46.7459   33.4727   35.7968 H   0  0  0  0  0  0  0  0  0  0  0  0
   47.0928   31.7102   35.7968 H   0  0  0  0  0  0  0  0  0  0  0  0
  1  9  1  0
  2  1  2  0
  3  2  1  0
  4  5  1  0
  4  3  2  0
  5  6  2  0
  6  1  1  0
  7 12  2  0
  8  7  1  0
  9  8  2  0
  9 10  1  0
 10 11  2  0
 11 12  1  0
 13  5  1  0
 14 13  1  0
 15 14  1  0
 15 13  1  0
 16 15  1  0
  2 17  1  0
  3 18  1  0
  4 19  1  0
  7 20  1  0
  8 21  1  0
 11 22  1  0
 13 23  1  6
 14 24  1  0
 14 25  1  0
 15 26  1  6
 16 27  1  0
 16 28  1  0
 16 29  1  0
M  ISO  8  17  14  18  14  19  14  20  14  21  14  22  14  23  13  24  13
M  ISO  5  25  13  26  13  27   8  28   8  29   8
M  END
>  <minimizedAffinity>  (1) 
-5.09600163

>  <minimizedRMSD>  (1) 
0.42920658

$$$$
