
     RDKit          3D

 42 46  0  0  1  0  0  0  0  0999 V2000
   47.1320   32.8220   44.1320 C   0  0  0  0  0  0  0  0  0  0  0  0
   47.1810   32.0070   45.2590 C   0  0  0  0  0  0  0  0  0  0  0  0
   46.4410   32.2440   46.4020 C   0  0  0  0  0  0  0  0  0  0  0  0
   45.5930   33.3380   46.4730 C   0  0  0  0  0  0  0  0  0  0  0  0
   45.5170   34.1670   45.3800 C   0  0  0  0  0  0  0  0  0  0  0  0
   44.6740   35.2610   45.4310 C   0  0  0  0  0  0  0  0  0  0  0  0
   44.5420   36.1290   44.3820 C   0  0  0  0  0  0  0  0  0  0  0  0
   45.3060   35.8480   43.2560 C   0  0  0  0  0  0  0  0  0  0  0  0
   46.1430   34.7470   43.2210 C   0  0  0  0  0  0  0  0  0  0  0  0
   46.2680   33.8900   44.2730 C   0  0  0  0  0  0  0  0  0  0  0  0
   46.7700   34.6990   41.9120 C   0  0  0  0  0  0  0  0  0  0  0  0
   46.6260   34.2150   40.6350 C   0  0  0  0  0  0  0  0  0  0  0  0
   47.6850   34.5170   39.8660 N   0  0  0  0  0  0  0  0  0  0  0  0
   48.5370   35.2070   40.6410 C   0  0  0  0  0  0  0  0  0  0  0  0
   47.9910   35.3220   41.8870 N   0  0  0  0  0  0  0  0  0  0  0  0
   47.9160   32.5380   42.9940 N   0  0  0  0  0  0  0  0  0  0  0  0
   50.0000   31.2610   42.2180 C   0  0  1  0  0  0  0  0  0  0  0  0
   48.7770   30.6070   41.6100 C   0  0  0  0  0  0  0  0  0  0  0  0
   48.7440   31.3720   42.9430 C   0  0  2  0  0  0  0  0  0  0  0  0
   51.9170   29.0120   44.4770 C   0  0  0  0  0  0  0  0  0  0  0  0
   53.1130   28.8170   43.7210 C   0  0  0  0  0  0  0  0  0  0  0  0
   53.2230   29.4570   42.4470 C   0  0  0  0  0  0  0  0  0  0  0  0
   52.2060   30.2090   42.0130 N   0  0  0  0  0  0  0  0  0  0  0  0
   51.0810   30.3750   42.7540 C   0  0  0  0  0  0  0  0  0  0  0  0
   50.9380   29.7770   43.9840 N   0  0  0  0  0  0  0  0  0  0  0  0
   47.8430   31.1287   45.2391 H   0  0  0  0  0  0  0  0  0  0  0  0
   46.5255   31.5607   47.2599 H   0  0  0  0  0  0  0  0  0  0  0  0
   44.9988   33.5365   47.3771 H   0  0  0  0  0  0  0  0  0  0  0  0
   44.0897   35.4397   46.3457 H   0  0  0  0  0  0  0  0  0  0  0  0
   43.8701   36.9988   44.4273 H   0  0  0  0  0  0  0  0  0  0  0  0
   45.2445   36.5104   42.3799 H   0  0  0  0  0  0  0  0  0  0  0  0
   45.7503   33.6490   40.2846 H   0  0  0  0  0  0  0  0  0  0  0  0
   47.8176   34.2679   38.8754 H   0  0  0  0  0  0  0  0  0  0  0  0
   49.5102   35.6112   40.3255 H   0  0  0  0  0  0  0  0  0  0  0  0
   47.8921   33.1792   42.1883 H   0  0  0  0  0  0  0  0  0  0  0  0
   50.7372   31.9969   41.8646 H   0  0  0  0  0  0  0  0  0  0  0  0
   48.3058   31.0311   40.7111 H   0  0  0  0  0  0  0  0  0  0  0  0
   48.5029   29.5994   41.2641 H   0  0  0  0  0  0  0  0  0  0  0  0
   48.5008   31.1808   43.9986 H   0  0  0  0  0  0  0  0  0  0  0  0
   51.8020   28.5344   45.4612 H   0  0  0  0  0  0  0  0  0  0  0  0
   53.9292   28.1900   44.1092 H   0  0  0  0  0  0  0  0  0  0  0  0
   54.1284   29.3329   41.8347 H   0  0  0  0  0  0  0  0  0  0  0  0
  1 10  1  0
  1  2  2  0
  2  3  1  0
  3  4  2  0
  5  6  2  0
  5  4  1  0
  7  6  1  0
  8  7  2  0
  9  8  1  0
  9 10  2  0
 10  5  1  0
 11  9  1  0
 12 11  2  0
 13 12  1  0
 13 14  1  0
 14 15  2  0
 15 11  1  0
 16  1  1  0
 17 24  1  0
 17 19  1  0
 18 17  1  0
 18 19  1  0
 19 16  1  0
 21 20  2  0
 22 21  1  0
 23 22  2  0
 23 24  1  0
 24 25  2  0
 25 20  1  0
  2 26  1  0
  3 27  1  0
  4 28  1  0
  6 29  1  0
  7 30  1  0
  8 31  1  0
 12 32  1  0
 13 33  1  0
 14 34  1  0
 16 35  1  0
 17 36  1  6
 18 37  1  0
 18 38  1  0
 19 39  1  1
 20 40  1  0
 21 41  1  0
 22 42  1  0
M  ISO  8  26  14  27  14  28  14  29  14  30  14  31  14  32  14  33   9
M  ISO  8  34  14  36  13  37  13  38  13  39  13  40  14  41  14  42  14
M  END
>  <minimizedAffinity>  (1) 
-5.69171095

>  <minimizedRMSD>  (1) 
2.38712978

$$$$
