
     RDKit          3D

 35 37  0  0  1  0  0  0  0  0999 V2000
   46.5290   34.6170   41.9400 C   0  0  0  0  0  0  0  0  0  0  0  0
   47.7420   35.1790   41.6010 C   0  0  0  0  0  0  0  0  0  0  0  0
   48.4280   34.9490   40.4270 C   0  0  0  0  0  0  0  0  0  0  0  0
   47.8560   34.0870   39.5120 C   0  0  0  0  0  0  0  0  0  0  0  0
   46.6510   33.5400   39.8640 C   0  0  0  0  0  0  0  0  0  0  0  0
   46.0430   33.8000   41.0090 N   0  0  0  0  0  0  0  0  0  0  0  0
   44.5040   36.1220   44.7290 C   0  0  0  0  0  0  0  0  0  0  0  0
   45.0810   36.0110   43.4620 C   0  0  0  0  0  0  0  0  0  0  0  0
   45.8530   34.8940   43.2060 C   0  0  0  0  0  0  0  0  0  0  0  0
   46.0140   33.9680   44.1810 N   0  0  0  0  0  0  0  0  0  0  0  0
   45.4330   34.1170   45.4070 C   0  0  0  0  0  0  0  0  0  0  0  0
   44.6900   35.1870   45.6600 N   0  0  0  0  0  0  0  0  0  0  0  0
   46.0400   32.6260   38.8780 C   0  0  2  0  0  0  0  0  0  0  0  0
   46.9320   31.6300   38.2290 C   0  0  0  0  0  0  0  0  0  0  0  0
   46.3020   32.7960   37.4610 C   0  0  1  0  0  0  0  0  0  0  0  0
   45.3290   32.4430   36.5120 O   0  0  0  0  0  0  0  0  0  0  0  0
   45.7900   30.6860   34.7210 O   0  0  0  0  0  0  0  0  0  0  0  0
   45.9660   32.1890   34.9760 P   0  0  1  0  0  0  0  0  0  0  0  0
   45.0690   32.9900   33.8140 O   0  0  0  0  0  0  0  0  0  0  0  0
   47.6200   32.4700   34.8560 O   0  0  0  0  0  0  0  0  0  0  0  0
   48.3620   31.3070   34.7060 C   0  0  0  0  0  0  0  0  0  0  0  0
   48.1999   35.8673   42.3267 H   0  0  0  0  0  0  0  0  0  0  0  0
   49.3948   35.4340   40.2268 H   0  0  0  0  0  0  0  0  0  0  0  0
   48.3417   33.8527   38.5532 H   0  0  0  0  0  0  0  0  0  0  0  0
   43.8832   36.9994   44.9632 H   0  0  0  0  0  0  0  0  0  0  0  0
   44.9265   36.7848   42.6956 H   0  0  0  0  0  0  0  0  0  0  0  0
   45.5803   33.3519   46.1835 H   0  0  0  0  0  0  0  0  0  0  0  0
   45.1079   32.5746   39.4598 H   0  0  0  0  0  0  0  0  0  0  0  0
   48.0105   31.6237   38.4455 H   0  0  0  0  0  0  0  0  0  0  0  0
   46.9559   30.5350   38.1275 H   0  0  0  0  0  0  0  0  0  0  0  0
   46.6501   33.6468   36.8569 H   0  0  0  0  0  0  0  0  0  0  0  0
   44.4082   33.5801   34.2559 H   0  0  0  0  0  0  0  0  0  0  0  0
   48.6184   30.9052   35.6974 H   0  0  0  0  0  0  0  0  0  0  0  0
   47.7707   30.5639   34.1509 H   0  0  0  0  0  0  0  0  0  0  0  0
   49.2851   31.5300   34.1509 H   0  0  0  0  0  0  0  0  0  0  0  0
  1  9  1  0
  2  1  2  0
  3  2  1  0
  4  5  1  0
  4  3  2  0
  5  6  2  0
  6  1  1  0
  7 12  2  0
  8  7  1  0
  9  8  2  0
  9 10  1  0
 10 11  2  0
 11 12  1  0
 13  5  1  0
 14 13  1  0
 15 14  1  0
 15 13  1  0
 16 15  1  0
 18 17  2  0
 18 16  1  0
 19 18  1  0
 20 18  1  0
 21 20  1  0
  2 22  1  0
  3 23  1  0
  4 24  1  0
  7 25  1  0
  8 26  1  0
 11 27  1  0
 13 28  1  6
 14 29  1  0
 14 30  1  0
 15 31  1  1
 19 32  1  0
 21 33  1  0
 21 34  1  0
 21 35  1  0
M  ISO  8  22  14  23  14  24  14  25  14  26  14  27  14  28  13  29  13
M  ISO  6  30  13  31  13  32   3  33   8  34   8  35   8
M  END
>  <minimizedAffinity>  (1) 
-5.91574717

>  <minimizedRMSD>  (1) 
0.222898632

$$$$
