
     RDKit          3D

 27 29  0  0  0  0  0  0  0  0999 V2000
   46.5770   31.6600   47.8610 C   0  0  0  0  0  0  0  0  0  0  0  0
   47.7860   32.0160   48.4470 C   0  0  0  0  0  0  0  0  0  0  0  0
   48.8050   31.1200   48.6730 C   0  0  0  0  0  0  0  0  0  0  0  0
   48.6100   29.7890   48.2930 C   0  0  0  0  0  0  0  0  0  0  0  0
   47.4000   29.4380   47.7070 C   0  0  0  0  0  0  0  0  0  0  0  0
   47.1970   28.1100   47.3230 C   0  0  0  0  0  0  0  0  0  0  0  0
   45.9910   27.7280   46.7320 C   0  0  0  0  0  0  0  0  0  0  0  0
   45.0110   28.6880   46.5370 C   0  0  0  0  0  0  0  0  0  0  0  0
   45.1810   30.0050   46.9050 C   0  0  0  0  0  0  0  0  0  0  0  0
   46.3850   30.3460   47.4860 C   0  0  0  0  0  0  0  0  0  0  0  0
   45.3400   32.9550   47.6350 S   0  0  0  0  0  0  0  0  0  0  0  0
   45.0670   35.2750   44.3640 C   0  0  0  0  0  0  0  0  0  0  0  0
   46.0860   34.7020   43.5390 C   0  0  0  0  0  0  0  0  0  0  0  0
   46.8130   33.6090   44.0510 C   0  0  0  0  0  0  0  0  0  0  0  0
   46.5120   33.1630   45.2890 N   0  0  0  0  0  0  0  0  0  0  0  0
   45.5290   33.7380   46.0480 C   0  0  0  0  0  0  0  0  0  0  0  0
   44.8270   34.7740   45.5840 N   0  0  0  0  0  0  0  0  0  0  0  0
   47.9351   33.0645   48.7443 H   0  0  0  0  0  0  0  0  0  0  0  0
   49.7475   31.4421   49.1399 H   0  0  0  0  0  0  0  0  0  0  0  0
   49.3963   29.0368   48.4542 H   0  0  0  0  0  0  0  0  0  0  0  0
   47.9887   27.3641   47.4866 H   0  0  0  0  0  0  0  0  0  0  0  0
   45.8221   26.6847   46.4270 H   0  0  0  0  0  0  0  0  0  0  0  0
   44.0612   28.3873   46.0707 H   0  0  0  0  0  0  0  0  0  0  0  0
   44.3905   30.7525   46.7425 H   0  0  0  0  0  0  0  0  0  0  0  0
   44.4790   36.1288   43.9962 H   0  0  0  0  0  0  0  0  0  0  0  0
   46.2953   35.1024   42.5361 H   0  0  0  0  0  0  0  0  0  0  0  0
   47.6059   33.1312   43.4568 H   0  0  0  0  0  0  0  0  0  0  0  0
  1  2  2  0
  2  3  1  0
  4  3  2  0
  5  4  1  0
  6  5  2  0
  7  6  1  0
  8  7  2  0
  8  9  1  0
  9 10  2  0
 10  5  1  0
 10  1  1  0
 11  1  1  0
 12 17  2  0
 13 14  2  0
 13 12  1  0
 14 15  1  0
 15 16  2  0
 16 11  1  0
 17 16  1  0
  2 18  1  0
  3 19  1  0
  4 20  1  0
  6 21  1  0
  7 22  1  0
  8 23  1  0
  9 24  1  0
 12 25  1  0
 13 26  1  0
 14 27  1  0
M  ISO  8  18  14  19  14  20  14  21  14  22  14  23  14  24  14  25  14
M  ISO  2  26  14  27  14
M  END
>  <minimizedAffinity>  (1) 
-4.5110445

>  <minimizedRMSD>  (1) 
3.27556229

$$$$
