
     RDKit          3D

 20 21  0  0  0  0  0  0  0  0999 V2000
   46.6250   34.7040   42.0420 N   0  0  0  0  0  0  0  0  0  0  0  0
   47.8780   35.1950   41.9360 C   0  0  0  0  0  0  0  0  0  0  0  0
   48.5300   35.0820   40.7070 C   0  0  0  0  0  0  0  0  0  0  0  0
   47.8580   34.4760   39.6720 C   0  0  0  0  0  0  0  0  0  0  0  0
   48.4640   34.3790   38.5530 O   0  0  0  0  0  0  0  0  0  0  0  0
   46.6050   33.9820   39.7680 N   0  0  0  0  0  0  0  0  0  0  0  0
   46.0310   34.1230   40.9850 C   0  0  0  0  0  0  0  0  0  0  0  0
   44.8750   33.7010   41.1820 O   0  0  0  0  0  0  0  0  0  0  0  0
   44.5020   36.0400   44.7620 C   0  0  0  0  0  0  0  0  0  0  0  0
   45.1490   35.9340   43.5040 C   0  0  0  0  0  0  0  0  0  0  0  0
   45.9690   34.8230   43.3010 C   0  0  0  0  0  0  0  0  0  0  0  0
   46.1040   33.9080   44.3100 N   0  0  0  0  0  0  0  0  0  0  0  0
   45.4740   34.0460   45.4860 C   0  0  0  0  0  0  0  0  0  0  0  0
   44.6680   35.1080   45.7280 N   0  0  0  0  0  0  0  0  0  0  0  0
   48.3722   35.6716   42.7955 H   0  0  0  0  0  0  0  0  0  0  0  0
   49.5515   35.4665   40.5706 H   0  0  0  0  0  0  0  0  0  0  0  0
   46.1235   33.5326   38.9761 H   0  0  0  0  0  0  0  0  0  0  0  0
   43.8481   36.9028   44.9569 H   0  0  0  0  0  0  0  0  0  0  0  0
   45.0103   36.6950   42.7219 H   0  0  0  0  0  0  0  0  0  0  0  0
   45.6140   33.2843   46.2671 H   0  0  0  0  0  0  0  0  0  0  0  0
  1 11  1  0
  2  1  1  0
  3  2  2  0
  4  6  1  0
  4  3  1  0
  5  4  2  0
  6  7  1  0
  7  8  2  0
  7  1  1  0
  9 14  2  0
 10  9  1  0
 11 10  2  0
 11 12  1  0
 12 13  2  0
 13 14  1  0
  2 15  1  0
  3 16  1  0
  6 17  1  0
  9 18  1  0
 10 19  1  0
 13 20  1  0
M  ISO  6  15  14  16  14  17   9  18  14  19  14  20  14
M  END
>  <minimizedAffinity>  (1) 
-5.02100801

>  <minimizedRMSD>  (1) 
0.949151039

$$$$
