
     RDKit          3D

 33 35  0  0  1  0  0  0  0  0999 V2000
   44.5810   35.7570   44.7380 C   0  0  0  0  0  0  0  0  0  0  0  0
   45.1940   35.7020   43.4580 C   0  0  0  0  0  0  0  0  0  0  0  0
   46.1350   34.6810   43.2560 C   0  0  0  0  0  0  0  0  0  0  0  0
   46.4110   33.8140   44.2660 N   0  0  0  0  0  0  0  0  0  0  0  0
   45.8110   33.8970   45.4630 C   0  0  0  0  0  0  0  0  0  0  0  0
   44.8880   34.8700   45.7150 N   0  0  0  0  0  0  0  0  0  0  0  0
   46.7590   34.6180   41.9670 N   0  0  0  0  0  0  0  0  0  0  0  0
   47.9780   35.2010   41.8350 C   0  0  0  0  0  0  0  0  0  0  0  0
   48.5940   35.1460   40.5880 C   0  0  0  0  0  0  0  0  0  0  0  0
   47.9250   34.5030   39.5620 C   0  0  0  0  0  0  0  0  0  0  0  0
   48.4940   34.4560   38.4220 O   0  0  0  0  0  0  0  0  0  0  0  0
   46.7200   33.9260   39.6910 N   0  0  0  0  0  0  0  0  0  0  0  0
   46.1760   34.0140   40.9290 C   0  0  0  0  0  0  0  0  0  0  0  0
   45.0620   33.5140   41.1570 O   0  0  0  0  0  0  0  0  0  0  0  0
   45.7730   33.2020   47.8680 C   0  0  2  0  0  0  0  0  0  0  0  0
   46.2200   32.8750   46.4630 C   0  0  1  0  0  0  0  0  0  0  0  0
   45.5590   31.6490   46.2710 O   0  0  0  0  0  0  0  0  0  0  0  0
   46.0650   30.9130   47.3440 C   0  0  0  0  0  0  0  0  0  0  0  0
   46.0110   31.8450   48.5370 C   0  0  2  0  0  0  0  0  0  0  0  0
   44.4210   33.4960   47.8720 O   0  0  0  0  0  0  0  0  0  0  0  0
   44.9440   31.5290   49.3830 O   0  0  0  0  0  0  0  0  0  0  0  0
   43.8368   36.5410   44.9416 H   0  0  0  0  0  0  0  0  0  0  0  0
   44.9439   36.4229   42.6657 H   0  0  0  0  0  0  0  0  0  0  0  0
   48.4633   35.7008   42.6863 H   0  0  0  0  0  0  0  0  0  0  0  0
   49.5824   35.5999   40.4234 H   0  0  0  0  0  0  0  0  0  0  0  0
   46.2452   33.4527   38.9090 H   0  0  0  0  0  0  0  0  0  0  0  0
   46.2784   34.0576   48.3396 H   0  0  0  0  0  0  0  0  0  0  0  0
   47.3121   32.8417   46.3357 H   0  0  0  0  0  0  0  0  0  0  0  0
   45.4461   30.0217   47.5244 H   0  0  0  0  0  0  0  0  0  0  0  0
   47.0882   30.5592   47.1491 H   0  0  0  0  0  0  0  0  0  0  0  0
   46.9109   31.7994   49.1680 H   0  0  0  0  0  0  0  0  0  0  0  0
   44.1012   33.5655   48.8063 H   0  0  0  0  0  0  0  0  0  0  0  0
   45.2337   31.6148   50.3258 H   0  0  0  0  0  0  0  0  0  0  0  0
  1  6  2  0
  2  1  1  0
  3  2  2  0
  3  4  1  0
  4  5  2  0
  5  6  1  0
  7  3  1  0
  8  7  1  0
  9  8  2  0
 10 12  1  0
 10  9  1  0
 11 10  2  0
 12 13  1  0
 13 14  2  0
 13  7  1  0
 15 20  1  0
 15 19  1  0
 16  5  1  0
 16 15  1  0
 17 16  1  0
 17 18  1  0
 18 19  1  0
 19 21  1  0
  1 22  1  0
  2 23  1  0
  8 24  1  0
  9 25  1  0
 12 26  1  0
 15 27  1  1
 16 28  1  1
 18 29  1  0
 18 30  1  0
 19 31  1  1
 20 32  1  0
 21 33  1  0
M  ISO  8  22  14  23  14  24  14  25  14  26   9  27  13  28  13  29  13
M  ISO  4  30  13  31  13  32   3  33   3
M  END
>  <minimizedAffinity>  (1) 
-6.85044861

>  <minimizedRMSD>  (1) 
0.531253159

$$$$
