
     RDKit          3D

 32 34  0  0  0  0  0  0  0  0999 V2000
   44.5220   35.9280   44.7910 C   0  0  0  0  0  0  0  0  0  0  0  0
   45.1610   35.8430   43.5390 C   0  0  0  0  0  0  0  0  0  0  0  0
   46.0110   34.7550   43.3210 C   0  0  0  0  0  0  0  0  0  0  0  0
   46.1730   33.8480   44.3210 N   0  0  0  0  0  0  0  0  0  0  0  0
   45.5540   33.9560   45.4980 C   0  0  0  0  0  0  0  0  0  0  0  0
   44.7220   34.9900   45.7570 N   0  0  0  0  0  0  0  0  0  0  0  0
   45.7630   32.9750   46.5080 N   0  0  0  0  0  0  0  0  0  0  0  0
   45.1880   32.9260   47.8270 C   0  0  0  0  0  0  0  0  0  0  0  0
   45.1850   31.4700   48.2270 C   0  0  0  0  0  0  0  0  0  0  0  0
   45.6630   30.7420   46.9650 C   0  0  0  0  0  0  0  0  0  0  0  0
   46.6130   31.8010   46.4190 C   0  0  0  0  0  0  0  0  0  0  0  0
   46.6620   34.6650   42.0460 N   0  0  0  0  0  0  0  0  0  0  0  0
   47.9120   35.1930   41.9510 C   0  0  0  0  0  0  0  0  0  0  0  0
   48.5590   35.1150   40.7170 C   0  0  0  0  0  0  0  0  0  0  0  0
   47.8930   34.5080   39.6730 C   0  0  0  0  0  0  0  0  0  0  0  0
   48.4740   34.4310   38.5480 O   0  0  0  0  0  0  0  0  0  0  0  0
   46.6550   33.9880   39.7770 N   0  0  0  0  0  0  0  0  0  0  0  0
   46.0760   34.0910   40.9930 C   0  0  0  0  0  0  0  0  0  0  0  0
   44.9320   33.6410   41.1920 O   0  0  0  0  0  0  0  0  0  0  0  0
   43.8457   36.7717   44.9930 H   0  0  0  0  0  0  0  0  0  0  0  0
   44.9974   36.6041   42.7619 H   0  0  0  0  0  0  0  0  0  0  0  0
   45.7954   33.5142   48.5306 H   0  0  0  0  0  0  0  0  0  0  0  0
   44.1726   33.3489   47.8394 H   0  0  0  0  0  0  0  0  0  0  0  0
   45.8739   31.2929   49.0660 H   0  0  0  0  0  0  0  0  0  0  0  0
   44.1979   31.1251   48.5685 H   0  0  0  0  0  0  0  0  0  0  0  0
   46.1855   29.8039   47.2038 H   0  0  0  0  0  0  0  0  0  0  0  0
   44.8678   30.4216   46.2758 H   0  0  0  0  0  0  0  0  0  0  0  0
   46.9075   31.5884   45.3807 H   0  0  0  0  0  0  0  0  0  0  0  0
   47.5713   31.8822   46.9529 H   0  0  0  0  0  0  0  0  0  0  0  0
   48.3967   35.6657   42.8180 H   0  0  0  0  0  0  0  0  0  0  0  0
   49.5704   35.5256   40.5810 H   0  0  0  0  0  0  0  0  0  0  0  0
   46.1800   33.5404   38.9802 H   0  0  0  0  0  0  0  0  0  0  0  0
  1  6  2  0
  2  1  1  0
  3  2  2  0
  3  4  1  0
  4  5  2  0
  5  6  1  0
  5  7  1  0
  7  8  1  0
  8  9  1  0
 10  9  1  0
 11  7  1  0
 11 10  1  0
 12  3  1  0
 13 12  1  0
 14 13  2  0
 15 17  1  0
 15 14  1  0
 16 15  2  0
 17 18  1  0
 18 19  2  0
 18 12  1  0
  1 20  1  0
  2 21  1  0
  8 22  1  0
  8 23  1  0
  9 24  1  0
  9 25  1  0
 10 26  1  0
 10 27  1  0
 11 28  1  0
 11 29  1  0
 13 30  1  0
 14 31  1  0
 17 32  1  0
M  ISO  8  20  14  21  14  22  13  23  13  24  13  25  13  26  13  27  13
M  ISO  5  28  13  29  13  30  14  31  14  32   9
M  END
>  <minimizedAffinity>  (1) 
-6.57699156

>  <minimizedRMSD>  (1) 
0.119045675

$$$$
