
     RDKit          3D

 24 25  0  0  0  0  0  0  0  0999 V2000
   44.4690   36.2850   44.6930 C   0  0  0  0  0  0  0  0  0  0  0  0
   45.1180   36.1050   43.4470 C   0  0  0  0  0  0  0  0  0  0  0  0
   45.8710   34.9510   43.2910 C   0  0  0  0  0  0  0  0  0  0  0  0
   45.9610   34.0440   44.3230 N   0  0  0  0  0  0  0  0  0  0  0  0
   45.3200   34.2740   45.4840 C   0  0  0  0  0  0  0  0  0  0  0  0
   44.5760   35.3740   45.6940 N   0  0  0  0  0  0  0  0  0  0  0  0
   46.4350   32.3710   46.4690 C   0  0  0  0  0  0  0  0  0  0  0  0
   47.2700   32.2510   45.5350 O   0  0  0  0  0  0  0  0  0  0  0  0
   45.4020   33.3470   46.5620 N   0  0  0  0  0  0  0  0  0  0  0  0
   46.5350   34.7510   42.0380 N   0  0  0  0  0  0  0  0  0  0  0  0
   47.8200   35.1550   41.9360 C   0  0  0  0  0  0  0  0  0  0  0  0
   48.4690   34.9580   40.7140 C   0  0  0  0  0  0  0  0  0  0  0  0
   47.7640   34.3650   39.6850 C   0  0  0  0  0  0  0  0  0  0  0  0
   48.3960   34.2060   38.5930 O   0  0  0  0  0  0  0  0  0  0  0  0
   46.4700   33.9590   39.7870 N   0  0  0  0  0  0  0  0  0  0  0  0
   45.9150   34.1810   40.9920 C   0  0  0  0  0  0  0  0  0  0  0  0
   44.7330   33.8450   41.1880 O   0  0  0  0  0  0  0  0  0  0  0  0
   43.8615   37.1878   44.8541 H   0  0  0  0  0  0  0  0  0  0  0  0
   45.0288   36.8469   42.6397 H   0  0  0  0  0  0  0  0  0  0  0  0
   46.5106   31.6499   47.2962 H   0  0  0  0  0  0  0  0  0  0  0  0
   44.7530   33.3804   47.3611 H   0  0  0  0  0  0  0  0  0  0  0  0
   48.3380   35.6232   42.7860 H   0  0  0  0  0  0  0  0  0  0  0  0
   49.5154   35.2676   40.5752 H   0  0  0  0  0  0  0  0  0  0  0  0
   45.9589   33.5193   39.0084 H   0  0  0  0  0  0  0  0  0  0  0  0
  1  6  2  0
  2  1  1  0
  3  2  2  0
  3  4  1  0
  4  5  2  0
  5  6  1  0
  5  9  1  0
  7  9  1  0
  8  7  2  0
 10  3  1  0
 11 10  1  0
 12 11  2  0
 13 15  1  0
 13 12  1  0
 14 13  2  0
 15 16  1  0
 16 17  2  0
 16 10  1  0
  1 18  1  0
  2 19  1  0
  7 20  1  0
  9 21  1  0
 11 22  1  0
 12 23  1  0
 15 24  1  0
M  ISO  6  18  14  19  14  20   6  22  14  23  14  24   9
M  END
>  <minimizedAffinity>  (1) 
-6.05332422

>  <minimizedRMSD>  (1) 
0.216645718

$$$$
