
     RDKit          3D

 42 44  0  0  0  0  0  0  0  0999 V2000
   44.4680   35.9550   44.4450 C   0  0  0  0  0  0  0  0  0  0  0  0
   45.1020   35.8450   43.1800 C   0  0  0  0  0  0  0  0  0  0  0  0
   46.0740   34.8680   43.0520 C   0  0  0  0  0  0  0  0  0  0  0  0
   46.3860   34.0530   44.1310 N   0  0  0  0  0  0  0  0  0  0  0  0
   45.7430   34.2140   45.3030 C   0  0  0  0  0  0  0  0  0  0  0  0
   44.7950   35.1420   45.4860 N   0  0  0  0  0  0  0  0  0  0  0  0
   46.7200   34.7410   41.7930 N   0  0  0  0  0  0  0  0  0  0  0  0
   47.9410   35.2640   41.6330 C   0  0  0  0  0  0  0  0  0  0  0  0
   48.5750   35.1360   40.3990 C   0  0  0  0  0  0  0  0  0  0  0  0
   47.9190   34.4790   39.4040 C   0  0  0  0  0  0  0  0  0  0  0  0
   48.5250   34.3760   38.2840 O   0  0  0  0  0  0  0  0  0  0  0  0
   46.6910   33.9410   39.5340 N   0  0  0  0  0  0  0  0  0  0  0  0
   46.1330   34.1010   40.7560 C   0  0  0  0  0  0  0  0  0  0  0  0
   44.9950   33.6410   40.9840 O   0  0  0  0  0  0  0  0  0  0  0  0
   46.2440   33.2270   46.2800 C   0  0  0  0  0  0  0  0  0  0  0  0
   45.2550   33.0090   47.4090 C   0  0  0  0  0  0  0  0  0  0  0  0
   45.7510   31.8020   48.2100 C   0  0  0  0  0  0  0  0  0  0  0  0
   47.2650   31.9490   48.3310 C   0  0  0  0  0  0  0  0  0  0  0  0
   47.7490   30.7290   49.0870 C   0  0  0  0  0  0  0  0  0  0  0  0
   47.5900   29.5710   48.0950 C   0  0  0  0  0  0  0  0  0  0  0  0
   46.1500   29.3390   47.8110 C   0  0  0  0  0  0  0  0  0  0  0  0
   45.3220   30.5450   47.5410 C   0  0  0  0  0  0  0  0  0  0  0  0
   43.6900   36.7194   44.5880 H   0  0  0  0  0  0  0  0  0  0  0  0
   44.8338   36.5046   42.3415 H   0  0  0  0  0  0  0  0  0  0  0  0
   48.4371   35.7874   42.4636 H   0  0  0  0  0  0  0  0  0  0  0  0
   49.5787   35.5547   40.2335 H   0  0  0  0  0  0  0  0  0  0  0  0
   46.2152   33.4476   38.7651 H   0  0  0  0  0  0  0  0  0  0  0  0
   46.4151   32.2700   45.7653 H   0  0  0  0  0  0  0  0  0  0  0  0
   47.1794   33.6132   46.7112 H   0  0  0  0  0  0  0  0  0  0  0  0
   45.2146   33.8996   48.0534 H   0  0  0  0  0  0  0  0  0  0  0  0
   44.2430   32.8312   47.0162 H   0  0  0  0  0  0  0  0  0  0  0  0
   45.3211   31.7574   49.2215 H   0  0  0  0  0  0  0  0  0  0  0  0
   47.7255   31.9865   47.3327 H   0  0  0  0  0  0  0  0  0  0  0  0
   47.5370   32.8781   48.8532 H   0  0  0  0  0  0  0  0  0  0  0  0
   48.8025   30.8468   49.3807 H   0  0  0  0  0  0  0  0  0  0  0  0
   47.1842   30.5628   50.0162 H   0  0  0  0  0  0  0  0  0  0  0  0
   48.1105   29.8196   47.1584 H   0  0  0  0  0  0  0  0  0  0  0  0
   48.0233   28.6592   48.5320 H   0  0  0  0  0  0  0  0  0  0  0  0
   46.0849   28.6851   46.9289 H   0  0  0  0  0  0  0  0  0  0  0  0
   45.7384   28.9051   48.7342 H   0  0  0  0  0  0  0  0  0  0  0  0
   45.3325   30.7226   46.4555 H   0  0  0  0  0  0  0  0  0  0  0  0
   44.3284   30.3171   47.9543 H   0  0  0  0  0  0  0  0  0  0  0  0
  1  6  2  0
  2  1  1  0
  3  2  2  0
  3  4  1  0
  4  5  2  0
  5  6  1  0
  5 15  1  0
  7  3  1  0
  8  7  1  0
  9  8  2  0
 10 12  1  0
 10  9  1  0
 11 10  2  0
 12 13  1  0
 13 14  2  0
 13  7  1  0
 15 16  1  0
 16 17  1  0
 17 18  1  0
 18 19  1  0
 20 19  1  0
 21 20  1  0
 22 21  1  0
 22 17  1  0
  1 23  1  0
  2 24  1  0
  8 25  1  0
  9 26  1  0
 12 27  1  0
 15 28  1  0
 15 29  1  0
 16 30  1  0
 16 31  1  0
 17 32  1  0
 18 33  1  0
 18 34  1  0
 19 35  1  0
 19 36  1  0
 20 37  1  0
 20 38  1  0
 21 39  1  0
 21 40  1  0
 22 41  1  0
 22 42  1  0
M  ISO  8  23  14  24  14  25  14  26  14  27   9  28   8  29   8  30   8
M  ISO  8  31   8  32  13  33  13  34  13  35  13  36  13  37  13  38  13
M  ISO  4  39  13  40  13  41  13  42  13
M  END
>  <minimizedAffinity>  (1) 
-6.28084421

>  <minimizedRMSD>  (1) 
0.415428847

$$$$
