
     RDKit          3D

 27 28  0  0  0  0  0  0  0  0999 V2000
   44.5460   35.7210   44.9620 C   0  0  0  0  0  0  0  0  0  0  0  0
   45.1570   35.6930   43.6790 C   0  0  0  0  0  0  0  0  0  0  0  0
   46.0320   34.6330   43.4190 C   0  0  0  0  0  0  0  0  0  0  0  0
   46.2450   33.7000   44.3970 N   0  0  0  0  0  0  0  0  0  0  0  0
   45.6460   33.7740   45.5860 C   0  0  0  0  0  0  0  0  0  0  0  0
   44.7960   34.7670   45.8920 N   0  0  0  0  0  0  0  0  0  0  0  0
   46.6490   34.5900   42.1470 N   0  0  0  0  0  0  0  0  0  0  0  0
   47.8830   35.1310   42.0130 C   0  0  0  0  0  0  0  0  0  0  0  0
   48.5000   35.0940   40.7660 C   0  0  0  0  0  0  0  0  0  0  0  0
   47.8280   34.5140   39.7390 C   0  0  0  0  0  0  0  0  0  0  0  0
   48.3940   34.4790   38.5920 O   0  0  0  0  0  0  0  0  0  0  0  0
   46.6050   33.9690   39.8420 N   0  0  0  0  0  0  0  0  0  0  0  0
   46.0510   34.0310   41.0730 C   0  0  0  0  0  0  0  0  0  0  0  0
   44.9220   33.5630   41.2960 O   0  0  0  0  0  0  0  0  0  0  0  0
   46.0490   32.6430   46.4570 C   0  0  0  0  0  0  0  0  0  0  0  0
   45.5860   32.8270   47.8850 C   0  0  0  0  0  0  0  0  0  0  0  0
   44.2810   32.3820   48.0720 O   0  0  0  0  0  0  0  0  0  0  0  0
   43.8519   36.5385   45.2068 H   0  0  0  0  0  0  0  0  0  0  0  0
   44.9515   36.4682   42.9261 H   0  0  0  0  0  0  0  0  0  0  0  0
   48.3889   35.5916   42.8744 H   0  0  0  0  0  0  0  0  0  0  0  0
   49.5023   35.5220   40.6171 H   0  0  0  0  0  0  0  0  0  0  0  0
   46.1242   33.5353   39.0410 H   0  0  0  0  0  0  0  0  0  0  0  0
   45.6103   31.7160   46.0592 H   0  0  0  0  0  0  0  0  0  0  0  0
   47.1480   32.5964   46.4622 H   0  0  0  0  0  0  0  0  0  0  0  0
   46.2533   32.2597   48.5504 H   0  0  0  0  0  0  0  0  0  0  0  0
   45.6142   33.9023   48.1151 H   0  0  0  0  0  0  0  0  0  0  0  0
   44.0902   32.3169   49.0413 H   0  0  0  0  0  0  0  0  0  0  0  0
  1  6  2  0
  2  1  1  0
  3  2  2  0
  3  4  1  0
  4  5  2  0
  5  6  1  0
  5 15  1  0
  7  3  1  0
  8  7  1  0
  9  8  2  0
 10 12  1  0
 10  9  1  0
 11 10  2  0
 12 13  1  0
 13 14  2  0
 13  7  1  0
 15 16  1  0
 16 17  1  0
  1 18  1  0
  2 19  1  0
  8 20  1  0
  9 21  1  0
 12 22  1  0
 15 23  1  0
 15 24  1  0
 16 25  1  0
 16 26  1  0
 17 27  1  0
M  ISO  8  18  14  19  14  20  14  21  14  22   9  23   8  24   8  25   8
M  ISO  2  26   8  27   3
M  END
>  <minimizedAffinity>  (1) 
-5.66852045

>  <minimizedRMSD>  (1) 
0.229866669

$$$$
