
     RDKit          3D

 37 38  0  0  0  0  0  0  0  0999 V2000
   44.4970   35.8640   44.6950 C   0  0  0  0  0  0  0  0  0  0  0  0
   45.1220   35.7900   43.4330 C   0  0  0  0  0  0  0  0  0  0  0  0
   46.0600   34.7900   43.2520 C   0  0  0  0  0  0  0  0  0  0  0  0
   46.3320   33.9360   44.2920 N   0  0  0  0  0  0  0  0  0  0  0  0
   45.7160   34.0420   45.4730 C   0  0  0  0  0  0  0  0  0  0  0  0
   44.7840   35.0120   45.6970 N   0  0  0  0  0  0  0  0  0  0  0  0
   46.7070   34.6960   41.9790 N   0  0  0  0  0  0  0  0  0  0  0  0
   47.9330   35.2420   41.8530 C   0  0  0  0  0  0  0  0  0  0  0  0
   48.5710   35.1560   40.6170 C   0  0  0  0  0  0  0  0  0  0  0  0
   47.9140   34.5210   39.6010 C   0  0  0  0  0  0  0  0  0  0  0  0
   48.5020   34.4430   38.4650 O   0  0  0  0  0  0  0  0  0  0  0  0
   46.6820   33.9700   39.7160 N   0  0  0  0  0  0  0  0  0  0  0  0
   46.1260   34.0900   40.9350 C   0  0  0  0  0  0  0  0  0  0  0  0
   44.9880   33.6160   41.1530 O   0  0  0  0  0  0  0  0  0  0  0  0
   46.1890   33.0020   46.4160 C   0  0  0  0  0  0  0  0  0  0  0  0
   45.2380   32.8570   47.5900 C   0  0  0  0  0  0  0  0  0  0  0  0
   45.3590   30.6230   48.5660 C   0  0  0  0  0  0  0  0  0  0  0  0
   46.2780   31.0720   49.2780 O   0  0  0  0  0  0  0  0  0  0  0  0
   44.7610   31.4920   47.6450 N   0  0  0  0  0  0  0  0  0  0  0  0
   44.9320   29.2350   48.7010 C   0  0  0  0  0  0  0  0  0  0  0  0
   45.0160   28.2470   47.8390 C   0  0  0  0  0  0  0  0  0  0  0  0
   44.5940   26.8490   47.9580 C   0  0  0  0  0  0  0  0  0  0  0  0
   43.7456   36.6486   44.8674 H   0  0  0  0  0  0  0  0  0  0  0  0
   44.8742   36.4970   42.6275 H   0  0  0  0  0  0  0  0  0  0  0  0
   48.4176   35.7427   42.7042 H   0  0  0  0  0  0  0  0  0  0  0  0
   49.5720   35.5858   40.4641 H   0  0  0  0  0  0  0  0  0  0  0  0
   46.2088   33.4970   38.9329 H   0  0  0  0  0  0  0  0  0  0  0  0
   46.2556   32.0402   45.8865 H   0  0  0  0  0  0  0  0  0  0  0  0
   47.1757   33.3006   46.7999 H   0  0  0  0  0  0  0  0  0  0  0  0
   45.7654   33.1012   48.5240 H   0  0  0  0  0  0  0  0  0  0  0  0
   44.3871   33.5429   47.4655 H   0  0  0  0  0  0  0  0  0  0  0  0
   44.0043   31.1692   47.0253 H   0  0  0  0  0  0  0  0  0  0  0  0
   44.4720   28.9775   49.6664 H   0  0  0  0  0  0  0  0  0  0  0  0
   45.4760   28.5113   46.8754 H   0  0  0  0  0  0  0  0  0  0  0  0
   44.5127   26.5798   49.0214 H   0  0  0  0  0  0  0  0  0  0  0  0
   43.6164   26.7184   47.4709 H   0  0  0  0  0  0  0  0  0  0  0  0
   45.3360   26.1993   47.4709 H   0  0  0  0  0  0  0  0  0  0  0  0
  1  6  2  0
  2  1  1  0
  3  2  2  0
  3  4  1  0
  4  5  2  0
  5  6  1  0
  5 15  1  0
  7  3  1  0
  8  7  1  0
  9  8  2  0
 10 12  1  0
 10  9  1  0
 11 10  2  0
 12 13  1  0
 13 14  2  0
 13  7  1  0
 15 16  1  0
 16 19  1  0
 17 20  1  0
 17 18  2  0
 19 17  1  0
 21 22  1  0
 21 20  2  0
  1 23  1  0
  2 24  1  0
  8 25  1  0
  9 26  1  0
 12 27  1  0
 15 28  1  0
 15 29  1  0
 16 30  1  0
 16 31  1  0
 19 32  1  0
 20 33  1  0
 21 34  1  0
 22 35  1  0
 22 36  1  0
 22 37  1  0
M  ISO  8  23  14  24  14  25  14  26  14  27   9  28   8  29   8  30   8
M  ISO  4  31   8  35   8  36   8  37   8
M  END
>  <minimizedAffinity>  (1) 
-6.22710085

>  <minimizedRMSD>  (1) 
0.366325945

$$$$
