
     RDKit          3D

 21 22  0  0  0  0  0  0  0  0999 V2000
   46.2090   32.8870   45.5310 C   0  0  0  0  0  0  0  0  0  0  0  0
   46.9860   31.8970   45.0340 C   0  0  0  0  0  0  0  0  0  0  0  0
   47.3670   30.7980   45.7620 C   0  0  0  0  0  0  0  0  0  0  0  0
   46.9240   30.7340   47.0390 N   0  0  0  0  0  0  0  0  0  0  0  0
   46.1550   31.7090   47.5370 C   0  0  0  0  0  0  0  0  0  0  0  0
   45.7830   32.7910   46.8140 N   0  0  0  0  0  0  0  0  0  0  0  0
   44.5220   35.9820   44.5190 C   0  0  0  0  0  0  0  0  0  0  0  0
   45.0740   36.2180   43.2580 C   0  0  0  0  0  0  0  0  0  0  0  0
   46.0170   35.3300   42.7520 C   0  0  0  0  0  0  0  0  0  0  0  0
   46.3700   34.2440   43.5210 N   0  0  0  0  0  0  0  0  0  0  0  0
   45.8220   34.0460   44.7270 C   0  0  0  0  0  0  0  0  0  0  0  0
   44.9130   34.8980   45.2220 N   0  0  0  0  0  0  0  0  0  0  0  0
   45.6620   31.6460   48.9480 C   0  0  0  0  0  0  0  0  0  0  0  0
   45.8450   32.9330   49.4610 F   0  0  0  0  0  0  0  0  0  0  0  0
   44.3390   31.2960   48.8880 F   0  0  0  0  0  0  0  0  0  0  0  0
   46.3460   30.6980   49.6690 F   0  0  0  0  0  0  0  0  0  0  0  0
   47.3301   31.9773   43.9923 H   0  0  0  0  0  0  0  0  0  0  0  0
   48.0002   30.0093   45.3296 H   0  0  0  0  0  0  0  0  0  0  0  0
   43.7750   36.6736   44.9358 H   0  0  0  0  0  0  0  0  0  0  0  0
   44.7663   37.0964   42.6717 H   0  0  0  0  0  0  0  0  0  0  0  0
   46.4694   35.4912   41.7624 H   0  0  0  0  0  0  0  0  0  0  0  0
  1  6  1  0
  2  1  2  0
  2  3  1  0
  3  4  2  0
  4  5  1  0
  5 13  1  0
  6  5  2  0
  7 12  2  0
  8  7  1  0
  9  8  2  0
  9 10  1  0
 10 11  2  0
 11 12  1  0
 11  1  1  0
 13 14  1  0
 13 16  1  0
 15 13  1  0
  2 17  1  0
  3 18  1  0
  7 19  1  0
  8 20  1  0
  9 21  1  0
M  ISO  5  17  14  18  14  19  14  20  14  21  14
M  END
>  <minimizedAffinity>  (1) 
-5.15790844

>  <minimizedRMSD>  (1) 
1.32181311

$$$$
