
     RDKit          3D

 28 30  0  0  0  0  0  0  0  0999 V2000
   46.0800   32.9750   45.7030 C   0  0  0  0  0  0  0  0  0  0  0  0
   45.3180   34.0720   45.4090 C   0  0  0  0  0  0  0  0  0  0  0  0
   45.5110   34.8510   44.2990 C   0  0  0  0  0  0  0  0  0  0  0  0
   46.5230   34.4940   43.4590 N   0  0  0  0  0  0  0  0  0  0  0  0
   47.2740   33.4200   43.7430 C   0  0  0  0  0  0  0  0  0  0  0  0
   47.0760   32.6550   44.8420 N   0  0  0  0  0  0  0  0  0  0  0  0
   45.4060   30.0580   47.8090 C   0  0  0  0  0  0  0  0  0  0  0  0
   45.4100   30.6320   49.1040 C   0  0  0  0  0  0  0  0  0  0  0  0
   45.6410   31.9960   49.2440 C   0  0  0  0  0  0  0  0  0  0  0  0
   45.8570   32.7320   48.1060 N   0  0  0  0  0  0  0  0  0  0  0  0
   45.8490   32.1690   46.8920 C   0  0  0  0  0  0  0  0  0  0  0  0
   45.6280   30.8640   46.7480 N   0  0  0  0  0  0  0  0  0  0  0  0
   46.5830   31.2990   41.8300 Cl  0  0  0  0  0  0  0  0  0  0  0  0
   48.1780   32.0540   41.8900 C   0  0  0  0  0  0  0  0  0  0  0  0
   48.3570   33.0380   42.8420 C   0  0  0  0  0  0  0  0  0  0  0  0
   49.6000   33.6310   42.8940 C   0  0  0  0  0  0  0  0  0  0  0  0
   50.6060   33.2470   42.0280 C   0  0  0  0  0  0  0  0  0  0  0  0
   50.3430   32.2560   41.1070 C   0  0  0  0  0  0  0  0  0  0  0  0
   49.1140   31.6000   40.9820 C   0  0  0  0  0  0  0  0  0  0  0  0
   44.5069   34.3432   46.1008 H   0  0  0  0  0  0  0  0  0  0  0  0
   44.8770   35.7263   44.0946 H   0  0  0  0  0  0  0  0  0  0  0  0
   45.2264   28.9816   47.6707 H   0  0  0  0  0  0  0  0  0  0  0  0
   45.2321   30.0049   49.9901 H   0  0  0  0  0  0  0  0  0  0  0  0
   45.6503   32.4705   50.2363 H   0  0  0  0  0  0  0  0  0  0  0  0
   49.7939   34.4206   43.6349 H   0  0  0  0  0  0  0  0  0  0  0  0
   51.5968   33.7227   42.0728 H   0  0  0  0  0  0  0  0  0  0  0  0
   51.1538   31.9612   40.4246 H   0  0  0  0  0  0  0  0  0  0  0  0
   48.9152   30.8102   40.2426 H   0  0  0  0  0  0  0  0  0  0  0  0
  1 11  1  0
  2  1  2  0
  3  2  1  0
  4  5  1  0
  4  3  2  0
  5  6  2  0
  6  1  1  0
  7  8  2  0
  8  9  1  0
 10  9  2  0
 11 10  1  0
 12 11  2  0
 12  7  1  0
 13 14  1  0
 14 15  2  0
 15 16  1  0
 15  5  1  0
 17 16  2  0
 18 17  1  0
 19 18  2  0
 19 14  1  0
  2 20  1  0
  3 21  1  0
  7 22  1  0
  8 23  1  0
  9 24  1  0
 16 25  1  0
 17 26  1  0
 18 27  1  0
 19 28  1  0
M  ISO  8  20  14  21  14  22  14  23  14  24  14  25  14  26  14  27  14
M  ISO  1  28  14
M  END
>  <minimizedAffinity>  (1) 
-5.06097269

>  <minimizedRMSD>  (1) 
7.42550468

$$$$
