
     RDKit          3D

 22 23  0  0  0  0  0  0  0  0999 V2000
   46.2240   33.0530   45.5870 C   0  0  0  0  0  0  0  0  0  0  0  0
   46.9970   32.0190   45.1910 C   0  0  0  0  0  0  0  0  0  0  0  0
   47.3620   30.9750   46.0180 C   0  0  0  0  0  0  0  0  0  0  0  0
   46.8980   31.0320   47.2890 N   0  0  0  0  0  0  0  0  0  0  0  0
   46.1340   32.0510   47.6890 C   0  0  0  0  0  0  0  0  0  0  0  0
   45.7780   33.0730   46.8730 N   0  0  0  0  0  0  0  0  0  0  0  0
   44.9690   31.1180   49.7070 C   0  0  0  0  0  0  0  0  0  0  0  0
   44.9550   30.0230   49.0520 O   0  0  0  0  0  0  0  0  0  0  0  0
   45.5880   32.2140   49.0080 N   0  0  0  0  0  0  0  0  0  0  0  0
   44.5180   36.0250   44.2830 C   0  0  0  0  0  0  0  0  0  0  0  0
   45.1370   36.1860   43.0410 C   0  0  0  0  0  0  0  0  0  0  0  0
   46.1290   35.2940   42.6420 C   0  0  0  0  0  0  0  0  0  0  0  0
   46.4650   34.2730   43.5010 N   0  0  0  0  0  0  0  0  0  0  0  0
   45.8530   34.1470   44.6830 C   0  0  0  0  0  0  0  0  0  0  0  0
   44.9020   35.0020   45.0650 N   0  0  0  0  0  0  0  0  0  0  0  0
   47.3561   32.0077   44.1513 H   0  0  0  0  0  0  0  0  0  0  0  0
   47.9927   30.1457   45.6650 H   0  0  0  0  0  0  0  0  0  0  0  0
   44.5452   31.2160   50.7173 H   0  0  0  0  0  0  0  0  0  0  0  0
   45.6406   33.1361   49.4640 H   0  0  0  0  0  0  0  0  0  0  0  0
   43.7329   36.7209   44.6137 H   0  0  0  0  0  0  0  0  0  0  0  0
   44.8418   37.0146   42.3805 H   0  0  0  0  0  0  0  0  0  0  0  0
   46.6294   35.4024   41.6685 H   0  0  0  0  0  0  0  0  0  0  0  0
  1  6  1  0
  2  1  2  0
  2  3  1  0
  3  4  2  0
  4  5  1  0
  5  9  1  0
  6  5  2  0
  8  7  2  0
  9  7  1  0
 10 15  2  0
 11 10  1  0
 12 11  2  0
 12 13  1  0
 13 14  2  0
 14 15  1  0
 14  1  1  0
  2 16  1  0
  3 17  1  0
  7 18  1  0
  9 19  1  0
 10 20  1  0
 11 21  1  0
 12 22  1  0
M  ISO  6  16  14  17  14  18   6  20  14  21  14  22  14
M  END
>  <minimizedAffinity>  (1) 
-5.02323723

>  <minimizedRMSD>  (1) 
1.05404413

$$$$
