
     RDKit          3D

 31 33  0  0  0  0  0  0  0  0999 V2000
   48.1480   31.7720   43.5420 C   0  0  0  0  0  0  0  0  0  0  0  0
   48.9130   30.6710   43.3850 C   0  0  0  0  0  0  0  0  0  0  0  0
   48.9960   29.6470   44.2880 C   0  0  0  0  0  0  0  0  0  0  0  0
   48.2410   29.7950   45.4010 N   0  0  0  0  0  0  0  0  0  0  0  0
   47.4730   30.8840   45.5780 C   0  0  0  0  0  0  0  0  0  0  0  0
   47.4060   31.8850   44.6700 N   0  0  0  0  0  0  0  0  0  0  0  0
   47.6760   35.0870   42.0360 C   0  0  0  0  0  0  0  0  0  0  0  0
   47.9700   34.8290   40.6890 C   0  0  0  0  0  0  0  0  0  0  0  0
   48.3280   33.5260   40.2900 C   0  0  0  0  0  0  0  0  0  0  0  0
   48.3720   32.5650   41.2570 N   0  0  0  0  0  0  0  0  0  0  0  0
   48.0810   32.8570   42.5500 C   0  0  0  0  0  0  0  0  0  0  0  0
   47.7420   34.0870   42.9320 N   0  0  0  0  0  0  0  0  0  0  0  0
   45.5740   30.2270   47.0550 C   0  0  0  0  0  0  0  0  0  0  0  0
   46.6630   31.0300   46.7850 C   0  0  0  0  0  0  0  0  0  0  0  0
   46.9330   31.9900   47.7440 C   0  0  0  0  0  0  0  0  0  0  0  0
   46.2240   32.2000   48.9080 C   0  0  0  0  0  0  0  0  0  0  0  0
   45.1450   31.3810   49.1470 C   0  0  0  0  0  0  0  0  0  0  0  0
   44.8330   30.4120   48.2290 C   0  0  0  0  0  0  0  0  0  0  0  0
   45.1130   28.9680   45.9310 S   0  0  0  0  0  0  0  0  0  0  0  0
   45.6970   27.6300   46.2870 O   0  0  0  0  0  0  0  0  0  0  0  0
   43.6040   28.7760   46.0000 O   0  0  0  0  0  0  0  0  0  0  0  0
   49.5120   30.5917   42.4658 H   0  0  0  0  0  0  0  0  0  0  0  0
   49.6319   28.7651   44.1211 H   0  0  0  0  0  0  0  0  0  0  0  0
   47.3934   36.1005   42.3569 H   0  0  0  0  0  0  0  0  0  0  0  0
   47.9213   35.6402   39.9476 H   0  0  0  0  0  0  0  0  0  0  0  0
   48.5626   33.2931   39.2408 H   0  0  0  0  0  0  0  0  0  0  0  0
   47.7950   32.6482   47.5606 H   0  0  0  0  0  0  0  0  0  0  0  0
   46.5099   32.9909   49.6171 H   0  0  0  0  0  0  0  0  0  0  0  0
   44.5426   31.5016   50.0595 H   0  0  0  0  0  0  0  0  0  0  0  0
   43.9705   29.7568   48.4211 H   0  0  0  0  0  0  0  0  0  0  0  0
   45.5643   29.3634   44.6994 H   0  0  0  0  0  0  0  0  0  0  0  0
  1  6  1  0
  2  1  2  0
  2  3  1  0
  3  4  2  0
  4  5  1  0
  5 14  1  0
  6  5  2  0
  7 12  2  0
  8  7  1  0
  9  8  2  0
  9 10  1  0
 10 11  2  0
 11 12  1  0
 11  1  1  0
 13 18  2  0
 14 13  1  0
 14 15  2  0
 15 16  1  0
 16 17  2  0
 18 17  1  0
 19 21  2  0
 19 20  2  0
 19 13  1  0
  2 22  1  0
  3 23  1  0
  7 24  1  0
  8 25  1  0
  9 26  1  0
 15 27  1  0
 16 28  1  0
 17 29  1  0
 18 30  1  0
 19 31  1  0
M  ISO  8  22  14  23  14  24  14  25  14  26  14  27  14  28  14  29  14
M  ISO  2  30  14  31  11
M  END
>  <minimizedAffinity>  (1) 
-4.71826553

>  <minimizedRMSD>  (1) 
4.06547022

$$$$
