
     RDKit          3D

 30 32  0  0  0  0  0  0  0  0999 V2000
   47.8200   32.2640   43.6270 C   0  0  0  0  0  0  0  0  0  0  0  0
   47.9750   30.9690   43.2800 C   0  0  0  0  0  0  0  0  0  0  0  0
   47.7230   29.9150   44.1280 C   0  0  0  0  0  0  0  0  0  0  0  0
   47.2960   30.2370   45.3730 N   0  0  0  0  0  0  0  0  0  0  0  0
   47.1400   31.5250   45.7180 C   0  0  0  0  0  0  0  0  0  0  0  0
   47.3870   32.5650   44.8850 N   0  0  0  0  0  0  0  0  0  0  0  0
   46.6910   31.8640   47.0260 N   0  0  0  0  0  0  0  0  0  0  0  0
   45.5060   32.6010   47.4480 C   0  0  0  0  0  0  0  0  0  0  0  0
   45.0120   31.9450   48.7190 C   0  0  0  0  0  0  0  0  0  0  0  0
   46.1000   30.9570   49.0800 C   0  0  0  0  0  0  0  0  0  0  0  0
   47.2760   31.5780   48.3220 C   0  0  0  0  0  0  0  0  0  0  0  0
   49.3800   35.2240   42.1240 C   0  0  0  0  0  0  0  0  0  0  0  0
   48.6310   35.4030   40.9590 C   0  0  0  0  0  0  0  0  0  0  0  0
   47.5980   34.5130   40.6920 C   0  0  0  0  0  0  0  0  0  0  0  0
   47.3620   33.5010   41.5860 N   0  0  0  0  0  0  0  0  0  0  0  0
   48.0980   33.3520   42.6990 C   0  0  0  0  0  0  0  0  0  0  0  0
   49.0860   34.2070   42.9490 N   0  0  0  0  0  0  0  0  0  0  0  0
   48.3226   30.7432   42.2611 H   0  0  0  0  0  0  0  0  0  0  0  0
   47.8604   28.8701   43.8130 H   0  0  0  0  0  0  0  0  0  0  0  0
   45.7631   33.6531   47.6402 H   0  0  0  0  0  0  0  0  0  0  0  0
   44.7311   32.5822   46.6675 H   0  0  0  0  0  0  0  0  0  0  0  0
   44.8830   32.6908   49.5172 H   0  0  0  0  0  0  0  0  0  0  0  0
   44.0329   31.4611   48.5879 H   0  0  0  0  0  0  0  0  0  0  0  0
   46.2821   30.9269   50.1644 H   0  0  0  0  0  0  0  0  0  0  0  0
   45.8818   29.9097   48.8240 H   0  0  0  0  0  0  0  0  0  0  0  0
   48.1124   30.8690   48.2340 H   0  0  0  0  0  0  0  0  0  0  0  0
   47.7024   32.4624   48.8180 H   0  0  0  0  0  0  0  0  0  0  0  0
   50.2047   35.9113   42.3637 H   0  0  0  0  0  0  0  0  0  0  0  0
   48.8538   36.2298   40.2685 H   0  0  0  0  0  0  0  0  0  0  0  0
   46.9844   34.6179   39.7851 H   0  0  0  0  0  0  0  0  0  0  0  0
  1  6  1  0
  2  1  2  0
  2  3  1  0
  3  4  2  0
  4  5  1  0
  5  7  1  0
  6  5  2  0
  7  8  1  0
  7 11  1  0
  8  9  1  0
  9 10  1  0
 11 10  1  0
 12 17  2  0
 13 12  1  0
 14 13  2  0
 14 15  1  0
 15 16  2  0
 16 17  1  0
 16  1  1  0
  2 18  1  0
  3 19  1  0
  8 20  1  0
  8 21  1  0
  9 22  1  0
  9 23  1  0
 10 24  1  0
 10 25  1  0
 11 26  1  0
 11 27  1  0
 12 28  1  0
 13 29  1  0
 14 30  1  0
M  ISO  8  18  14  19  14  20  13  21  13  22  13  23  13  24  13  25  13
M  ISO  5  26  13  27  13  28  14  29  14  30  14
M  END
>  <minimizedAffinity>  (1) 
-4.68741751

>  <minimizedRMSD>  (1) 
3.77854943

$$$$
