
     RDKit          3D

 31 34  0  0  0  0  0  0  0  0999 V2000
   46.4260   32.7050   44.1610 C   0  0  0  0  0  0  0  0  0  0  0  0
   47.6110   32.4040   43.5670 C   0  0  0  0  0  0  0  0  0  0  0  0
   48.1600   31.1500   43.5800 C   0  0  0  0  0  0  0  0  0  0  0  0
   47.4470   30.1770   44.2360 N   0  0  0  0  0  0  0  0  0  0  0  0
   46.2830   30.4820   44.8160 C   0  0  0  0  0  0  0  0  0  0  0  0
   45.7320   31.7190   44.8090 N   0  0  0  0  0  0  0  0  0  0  0  0
   44.4780   28.7760   44.9280 C   0  0  0  0  0  0  0  0  0  0  0  0
   45.5510   29.4240   45.5050 C   0  0  0  0  0  0  0  0  0  0  0  0
   45.8930   29.0140   46.7750 C   0  0  0  0  0  0  0  0  0  0  0  0
   45.1980   28.0060   47.4330 C   0  0  0  0  0  0  0  0  0  0  0  0
   45.2690   27.3920   48.6290 N   0  0  0  0  0  0  0  0  0  0  0  0
   44.2890   26.4490   48.7200 C   0  0  0  0  0  0  0  0  0  0  0  0
   43.5670   26.4480   47.5650 N   0  0  0  0  0  0  0  0  0  0  0  0
   44.1210   27.3920   46.7920 C   0  0  0  0  0  0  0  0  0  0  0  0
   43.7420   27.7700   45.5220 C   0  0  0  0  0  0  0  0  0  0  0  0
   44.5850   35.7130   45.1800 C   0  0  0  0  0  0  0  0  0  0  0  0
   44.7900   36.5580   44.0840 C   0  0  0  0  0  0  0  0  0  0  0  0
   45.5530   36.1090   42.9960 C   0  0  0  0  0  0  0  0  0  0  0  0
   46.0660   34.8450   43.0660 N   0  0  0  0  0  0  0  0  0  0  0  0
   45.8540   34.0460   44.1380 C   0  0  0  0  0  0  0  0  0  0  0  0
   45.1210   34.4790   45.1810 N   0  0  0  0  0  0  0  0  0  0  0  0
   48.1558   33.2078   43.0503 H   0  0  0  0  0  0  0  0  0  0  0  0
   49.1212   30.9334   43.0909 H   0  0  0  0  0  0  0  0  0  0  0  0
   44.1856   29.0856   43.9138 H   0  0  0  0  0  0  0  0  0  0  0  0
   46.7402   29.4981   47.2828 H   0  0  0  0  0  0  0  0  0  0  0  0
   45.9592   27.6029   49.3639 H   0  0  0  0  0  0  0  0  0  0  0  0
   44.1102   25.7947   49.5860 H   0  0  0  0  0  0  0  0  0  0  0  0
   42.8948   27.2937   45.0069 H   0  0  0  0  0  0  0  0  0  0  0  0
   43.9878   36.0562   46.0377 H   0  0  0  0  0  0  0  0  0  0  0  0
   44.3554   37.5685   44.0755 H   0  0  0  0  0  0  0  0  0  0  0  0
   45.7314   36.7501   42.1201 H   0  0  0  0  0  0  0  0  0  0  0  0
  1  6  2  0
  2  3  2  0
  2  1  1  0
  3  4  1  0
  4  5  2  0
  5  8  1  0
  6  5  1  0
  7  8  2  0
  7 15  1  0
  8  9  1  0
  9 10  2  0
 10 11  1  0
 11 12  1  0
 13 12  2  0
 14 10  1  0
 14 13  1  0
 15 14  2  0
 16 21  2  0
 17 16  1  0
 18 19  1  0
 18 17  2  0
 19 20  2  0
 20  1  1  0
 20 21  1  0
  2 22  1  0
  3 23  1  0
  7 24  1  0
  9 25  1  0
 11 26  1  0
 12 27  1  0
 15 28  1  0
 16 29  1  0
 17 30  1  0
 18 31  1  0
M  ISO  8  22  14  23  14  24  14  25  14  26   9  27  14  28  14  29  14
M  ISO  2  30  14  31  14
M  END
>  <minimizedAffinity>  (1) 
-4.57803917

>  <minimizedRMSD>  (1) 
4.84375572

$$$$
