
     RDKit          3D

 45 48  0  0  0  0  0  0  0  0999 V2000
   45.3550   33.6980   45.7390 C   0  0  0  0  0  0  0  0  0  0  0  0
   44.8420   34.9170   46.0440 C   0  0  0  0  0  0  0  0  0  0  0  0
   44.4390   35.8350   45.0970 C   0  0  0  0  0  0  0  0  0  0  0  0
   44.5770   35.4660   43.8070 N   0  0  0  0  0  0  0  0  0  0  0  0
   45.0890   34.2540   43.4960 C   0  0  0  0  0  0  0  0  0  0  0  0
   45.4750   33.3730   44.4270 N   0  0  0  0  0  0  0  0  0  0  0  0
   45.2340   33.8650   42.0760 C   0  0  0  0  0  0  0  0  0  0  0  0
   44.1890   33.2470   41.4360 C   0  0  0  0  0  0  0  0  0  0  0  0
   44.2100   32.8380   40.1070 C   0  0  0  0  0  0  0  0  0  0  0  0
   45.3850   33.0890   39.4150 C   0  0  0  0  0  0  0  0  0  0  0  0
   46.4270   33.7020   40.0480 C   0  0  0  0  0  0  0  0  0  0  0  0
   46.3850   34.1020   41.3680 C   0  0  0  0  0  0  0  0  0  0  0  0
   47.4090   34.7160   42.0290 O   0  0  0  0  0  0  0  0  0  0  0  0
   49.8500   35.3850   42.6710 O   0  0  0  0  0  0  0  0  0  0  0  0
   49.0200   34.7940   41.5280 P   0  0  0  0  0  0  0  0  0  0  0  0
   49.6580   33.3390   41.0160 O   0  0  0  0  0  0  0  0  0  0  0  0
   49.1290   35.9080   40.2490 O   0  0  0  0  0  0  0  0  0  0  0  0
   45.5150   31.8950   48.9140 C   0  0  0  0  0  0  0  0  0  0  0  0
   46.5370   30.9750   48.6700 C   0  0  0  0  0  0  0  0  0  0  0  0
   47.1610   30.9690   47.4470 C   0  0  0  0  0  0  0  0  0  0  0  0
   46.7530   31.8750   46.5020 N   0  0  0  0  0  0  0  0  0  0  0  0
   45.7690   32.7520   46.7540 C   0  0  0  0  0  0  0  0  0  0  0  0
   45.1590   32.7580   47.9500 N   0  0  0  0  0  0  0  0  0  0  0  0
   49.3990   30.0260   47.8460 C   0  0  0  0  0  0  0  0  0  0  0  0
   48.2340   30.0460   47.1090 C   0  0  0  0  0  0  0  0  0  0  0  0
   48.1910   29.1500   46.0740 C   0  0  0  0  0  0  0  0  0  0  0  0
   49.2190   28.2770   45.7640 C   0  0  0  0  0  0  0  0  0  0  0  0
   50.3620   28.3010   46.5350 C   0  0  0  0  0  0  0  0  0  0  0  0
   50.4670   29.1810   47.5930 C   0  0  0  0  0  0  0  0  0  0  0  0
   49.7530   31.6310   49.8870 N   0  0  0  0  0  0  0  0  0  0  0  0
   49.5850   30.9200   48.9720 C   0  0  0  0  0  0  0  0  0  0  0  0
   44.7421   35.1878   47.1055 H   0  0  0  0  0  0  0  0  0  0  0  0
   44.0272   36.8154   45.3785 H   0  0  0  0  0  0  0  0  0  0  0  0
   43.2716   33.0625   42.0141 H   0  0  0  0  0  0  0  0  0  0  0  0
   43.3476   32.3457   39.6339 H   0  0  0  0  0  0  0  0  0  0  0  0
   45.4770   32.7949   38.3590 H   0  0  0  0  0  0  0  0  0  0  0  0
   47.3484   33.8869   39.4763 H   0  0  0  0  0  0  0  0  0  0  0  0
   49.8991   32.7891   41.8032 H   0  0  0  0  0  0  0  0  0  0  0  0
   49.2186   36.8233   40.6154 H   0  0  0  0  0  0  0  0  0  0  0  0
   45.0058   31.9121   49.8889 H   0  0  0  0  0  0  0  0  0  0  0  0
   46.8394   30.2615   49.4507 H   0  0  0  0  0  0  0  0  0  0  0  0
   47.2845   29.1227   45.4515 H   0  0  0  0  0  0  0  0  0  0  0  0
   49.1262   27.5781   44.9197 H   0  0  0  0  0  0  0  0  0  0  0  0
   51.1924   27.6169   46.3062 H   0  0  0  0  0  0  0  0  0  0  0  0
   51.3723   29.2105   48.2171 H   0  0  0  0  0  0  0  0  0  0  0  0
  1  2  2  0
  1 22  1  0
  3  2  1  0
  4  3  2  0
  5  4  1  0
  5  6  2  0
  6  1  1  0
  7  5  1  0
  8  7  2  0
  9  8  1  0
 10 11  1  0
 10  9  2  0
 11 12  2  0
 12 13  1  0
 12  7  1  0
 15 13  1  0
 15 14  2  0
 16 15  1  0
 17 15  1  0
 19 18  2  0
 20 19  1  0
 21 22  1  0
 21 20  2  0
 22 23  2  0
 23 18  1  0
 24 31  1  0
 25 20  1  0
 25 24  2  0
 26 25  1  0
 27 26  2  0
 27 28  1  0
 28 29  2  0
 29 24  1  0
 31 30  3  0
  2 32  1  0
  3 33  1  0
  8 34  1  0
  9 35  1  0
 10 36  1  0
 11 37  1  0
 16 38  1  0
 17 39  1  0
 18 40  1  0
 19 41  1  0
 26 42  1  0
 27 43  1  0
 28 44  1  0
 29 45  1  0
M  ISO  8  32  14  33  14  34  14  35  14  36  14  37  14  38   3  39   3
M  ISO  6  40  14  41  14  42  14  43  14  44  14  45  14
M  END
>  <minimizedAffinity>  (1) 
-6.490623

>  <minimizedRMSD>  (1) 
0.74440217

$$$$
