
     RDKit          3D

 39 41  0  0  1  0  0  0  0  0999 V2000
   48.1170   33.5320   42.5150 C   0  0  1  0  0  0  0  0  0  0  0  0
   46.6420   33.7420   42.2610 C   0  0  2  0  0  0  0  0  0  0  0  0
   46.4100   34.6640   41.2600 O   0  0  0  0  0  0  0  0  0  0  0  0
   46.8020   34.0590   40.0780 C   0  0  0  0  0  0  0  0  0  0  0  0
   48.3040   33.9920   40.0430 C   0  0  2  0  0  0  0  0  0  0  0  0
   48.9410   33.4170   41.2790 C   0  0  2  0  0  0  0  0  0  0  0  0
   44.5690   35.7590   44.7130 C   0  0  0  0  0  0  0  0  0  0  0  0
   45.1800   35.3730   43.5110 C   0  0  0  0  0  0  0  0  0  0  0  0
   45.9650   34.1880   43.4960 C   0  0  0  0  0  0  0  0  0  0  0  0
   46.0790   33.4920   44.6510 N   0  0  0  0  0  0  0  0  0  0  0  0
   45.4770   33.8910   45.7940 C   0  0  0  0  0  0  0  0  0  0  0  0
   44.7200   35.0230   45.8320 N   0  0  0  0  0  0  0  0  0  0  0  0
   48.6320   34.4650   43.4220 O   0  0  0  0  0  0  0  0  0  0  0  0
   48.7230   35.3150   39.8140 O   0  0  0  0  0  0  0  0  0  0  0  0
   49.4010   32.1150   41.0660 O   0  0  0  0  0  0  0  0  0  0  0  0
   51.5760   31.4620   41.0600 C   0  0  0  0  0  0  0  0  0  0  0  0
   50.4420   31.7110   40.2780 C   0  0  0  0  0  0  0  0  0  0  0  0
   50.5620   31.5180   38.9180 C   0  0  0  0  0  0  0  0  0  0  0  0
   51.7480   31.0970   38.3640 C   0  0  0  0  0  0  0  0  0  0  0  0
   52.8710   30.8480   39.1220 C   0  0  0  0  0  0  0  0  0  0  0  0
   52.7750   31.0350   40.4860 C   0  0  0  0  0  0  0  0  0  0  0  0
   51.6640   31.5960   42.4540 O   0  0  0  0  0  0  0  0  0  0  0  0
   53.9210   30.7750   41.2110 O   0  0  0  0  0  0  0  0  0  0  0  0
   48.1915   32.5425   42.9897 H   0  0  0  0  0  0  0  0  0  0  0  0
   46.2344   32.7734   41.9358 H   0  0  0  0  0  0  0  0  0  0  0  0
   46.3853   33.0423   40.0271 H   0  0  0  0  0  0  0  0  0  0  0  0
   46.4337   34.6408   39.2202 H   0  0  0  0  0  0  0  0  0  0  0  0
   48.6248   33.2950   39.2548 H   0  0  0  0  0  0  0  0  0  0  0  0
   49.8153   34.0554   41.4740 H   0  0  0  0  0  0  0  0  0  0  0  0
   43.9589   36.6738   44.7428 H   0  0  0  0  0  0  0  0  0  0  0  0
   45.0544   35.9748   42.5988 H   0  0  0  0  0  0  0  0  0  0  0  0
   45.6005   33.2918   46.7082 H   0  0  0  0  0  0  0  0  0  0  0  0
   48.4611   34.1554   44.3467 H   0  0  0  0  0  0  0  0  0  0  0  0
   48.8672   35.7703   40.6812 H   0  0  0  0  0  0  0  0  0  0  0  0
   49.6956   31.7037   38.2662 H   0  0  0  0  0  0  0  0  0  0  0  0
   51.8021   30.9537   37.2747 H   0  0  0  0  0  0  0  0  0  0  0  0
   53.8098   30.5124   38.6572 H   0  0  0  0  0  0  0  0  0  0  0  0
   52.5152   31.3949   42.9179 H   0  0  0  0  0  0  0  0  0  0  0  0
   53.9211   30.8890   42.1944 H   0  0  0  0  0  0  0  0  0  0  0  0
  1 13  1  0
  2  1  1  0
  2  9  1  0
  3  2  1  0
  4  3  1  0
  5  4  1  0
  5  6  1  0
  6  1  1  0
  7 12  2  0
  8  7  1  0
  9  8  2  0
  9 10  1  0
 10 11  2  0
 11 12  1  0
 14  5  1  0
 15  6  1  0
 16 22  1  0
 17 16  2  0
 17 15  1  0
 18 17  1  0
 19 18  2  0
 19 20  1  0
 20 21  2  0
 21 16  1  0
 21 23  1  0
  1 24  1  1
  2 25  1  6
  4 26  1  0
  4 27  1  0
  5 28  1  6
  6 29  1  1
  7 30  1  0
  8 31  1  0
 11 32  1  0
 13 33  1  0
 14 34  1  0
 18 35  1  0
 19 36  1  0
 20 37  1  0
 22 38  1  0
 23 39  1  0
M  ISO  8  24  13  25  13  26  13  27  13  28  13  29  13  30  14  31  14
M  ISO  8  32  14  33   3  34   3  35  14  36  14  37  14  38   3  39   3
M  END
>  <minimizedAffinity>  (1) 
-6.22079563

>  <minimizedRMSD>  (1) 
1.27219045

$$$$
