
     RDKit          3D

 40 42  0  0  1  0  0  0  0  0999 V2000
   47.8890   33.3850   42.5670 C   0  0  1  0  0  0  0  0  0  0  0  0
   46.4440   33.7220   42.2850 C   0  0  2  0  0  0  0  0  0  0  0  0
   46.3210   34.6180   41.2400 O   0  0  0  0  0  0  0  0  0  0  0  0
   46.6660   33.9240   40.0910 C   0  0  0  0  0  0  0  0  0  0  0  0
   48.1620   33.7330   40.0880 C   0  0  2  0  0  0  0  0  0  0  0  0
   48.7140   33.1470   41.3530 C   0  0  2  0  0  0  0  0  0  0  0  0
   44.5130   36.0150   44.6000 C   0  0  0  0  0  0  0  0  0  0  0  0
   45.1030   35.5240   43.4260 C   0  0  0  0  0  0  0  0  0  0  0  0
   45.7950   34.2800   43.4860 C   0  0  0  0  0  0  0  0  0  0  0  0
   45.8500   33.6270   44.6680 N   0  0  0  0  0  0  0  0  0  0  0  0
   45.2590   34.1430   45.7890 C   0  0  0  0  0  0  0  0  0  0  0  0
   44.5960   35.3280   45.7540 N   0  0  0  0  0  0  0  0  0  0  0  0
   48.4760   34.2940   43.4560 O   0  0  0  0  0  0  0  0  0  0  0  0
   48.7100   34.9900   39.8130 O   0  0  0  0  0  0  0  0  0  0  0  0
   49.0690   31.7970   41.2130 O   0  0  0  0  0  0  0  0  0  0  0  0
   51.4720   31.9660   41.2160 C   0  0  2  0  0  0  0  0  0  0  0  0
   50.2060   31.5920   40.4760 C   0  0  1  0  0  0  0  0  0  0  0  0
   50.4560   30.2820   40.1470 O   0  0  0  0  0  0  0  0  0  0  0  0
   51.6970   30.3550   39.5130 C   0  0  0  0  0  0  0  0  0  0  0  0
   52.4900   31.4440   40.1970 C   0  0  2  0  0  0  0  0  0  0  0  0
   51.5880   31.3390   42.4380 O   0  0  0  0  0  0  0  0  0  0  0  0
   53.6590   31.0110   40.7770 O   0  0  0  0  0  0  0  0  0  0  0  0
   47.8654   32.4082   43.0722 H   0  0  0  0  0  0  0  0  0  0  0  0
   45.9449   32.7843   41.9992 H   0  0  0  0  0  0  0  0  0  0  0  0
   46.1654   32.9445   40.0830 H   0  0  0  0  0  0  0  0  0  0  0  0
   46.3526   34.4860   39.1988 H   0  0  0  0  0  0  0  0  0  0  0  0
   48.4344   32.9879   39.3260 H   0  0  0  0  0  0  0  0  0  0  0  0
   49.6393   33.7153   41.5284 H   0  0  0  0  0  0  0  0  0  0  0  0
   43.9753   36.9744   44.5770 H   0  0  0  0  0  0  0  0  0  0  0  0
   45.0332   36.0853   42.4826 H   0  0  0  0  0  0  0  0  0  0  0  0
   45.3220   33.5877   46.7365 H   0  0  0  0  0  0  0  0  0  0  0  0
   48.2929   34.0104   44.3867 H   0  0  0  0  0  0  0  0  0  0  0  0
   48.9126   35.4548   40.6633 H   0  0  0  0  0  0  0  0  0  0  0  0
   51.5615   33.0280   41.4885 H   0  0  0  0  0  0  0  0  0  0  0  0
   49.9946   32.2154   39.5947 H   0  0  0  0  0  0  0  0  0  0  0  0
   52.2229   29.3932   39.6040 H   0  0  0  0  0  0  0  0  0  0  0  0
   51.5741   30.5776   38.4428 H   0  0  0  0  0  0  0  0  0  0  0  0
   52.8630   32.2084   39.4994 H   0  0  0  0  0  0  0  0  0  0  0  0
   51.4652   32.0026   43.1624 H   0  0  0  0  0  0  0  0  0  0  0  0
   53.5703   31.0438   41.7625 H   0  0  0  0  0  0  0  0  0  0  0  0
  1 13  1  0
  2  1  1  0
  2  9  1  0
  3  2  1  0
  4  3  1  0
  5  4  1  0
  5  6  1  0
  6  1  1  0
  7 12  2  0
  8  9  2  0
  8  7  1  0
  9 10  1  0
 10 11  2  0
 12 11  1  0
 14  5  1  0
 15  6  1  0
 16 21  1  0
 17 15  1  0
 17 16  1  0
 18 17  1  0
 19 18  1  0
 19 20  1  0
 20 22  1  0
 20 16  1  0
  1 23  1  1
  2 24  1  6
  4 25  1  0
  4 26  1  0
  5 27  1  6
  6 28  1  1
  7 29  1  0
  8 30  1  0
 11 31  1  0
 13 32  1  0
 14 33  1  0
 16 34  1  1
 17 35  1  6
 19 36  1  0
 19 37  1  0
 20 38  1  6
 21 39  1  0
 22 40  1  0
M  ISO  8  23  13  24  13  25  13  26  13  27  13  28  13  29  14  30  14
M  ISO  8  31  14  32   3  33   3  34  13  35  13  36  13  37  13  38  13
M  ISO  2  39   3  40   3
M  END
>  <minimizedAffinity>  (1) 
-5.93301344

>  <minimizedRMSD>  (1) 
1.00165808

$$$$
