
     RDKit          3D

 37 39  0  0  1  0  0  0  0  0999 V2000
   48.1180   33.4620   42.5170 C   0  0  1  0  0  0  0  0  0  0  0  0
   46.6600   33.7160   42.2290 C   0  0  2  0  0  0  0  0  0  0  0  0
   46.4650   34.6470   41.2270 O   0  0  0  0  0  0  0  0  0  0  0  0
   46.8620   34.0290   40.0530 C   0  0  0  0  0  0  0  0  0  0  0  0
   48.3470   33.9220   40.0420 C   0  0  2  0  0  0  0  0  0  0  0  0
   48.9700   33.3350   41.2870 C   0  0  2  0  0  0  0  0  0  0  0  0
   44.5870   35.7800   44.6450 C   0  0  0  0  0  0  0  0  0  0  0  0
   45.2010   35.3800   43.4470 C   0  0  0  0  0  0  0  0  0  0  0  0
   45.9730   34.1850   43.4570 C   0  0  0  0  0  0  0  0  0  0  0  0
   46.0760   33.4910   44.6260 N   0  0  0  0  0  0  0  0  0  0  0  0
   45.4660   33.9160   45.7560 C   0  0  0  0  0  0  0  0  0  0  0  0
   44.7250   35.0550   45.7690 N   0  0  0  0  0  0  0  0  0  0  0  0
   48.6450   34.3900   43.4250 O   0  0  0  0  0  0  0  0  0  0  0  0
   48.8120   35.2370   39.8160 O   0  0  0  0  0  0  0  0  0  0  0  0
   49.3970   32.0400   41.0960 O   0  0  0  0  0  0  0  0  0  0  0  0
   50.0070   30.1070   43.5250 Cl  0  0  0  0  0  0  0  0  0  0  0  0
   51.0620   30.4890   42.2070 C   0  0  0  0  0  0  0  0  0  0  0  0
   50.5300   31.3620   41.2920 C   0  0  0  0  0  0  0  0  0  0  0  0
   51.3790   31.6730   40.2270 C   0  0  0  0  0  0  0  0  0  0  0  0
   52.6700   31.1370   40.1000 C   0  0  0  0  0  0  0  0  0  0  0  0
   53.1080   30.2570   41.0920 C   0  0  0  0  0  0  0  0  0  0  0  0
   52.3010   29.9290   42.1530 C   0  0  0  0  0  0  0  0  0  0  0  0
   48.1492   32.4728   42.9971 H   0  0  0  0  0  0  0  0  0  0  0  0
   46.2378   32.7595   41.8871 H   0  0  0  0  0  0  0  0  0  0  0  0
   46.4190   33.0237   39.9969 H   0  0  0  0  0  0  0  0  0  0  0  0
   46.5247   34.6198   39.1886 H   0  0  0  0  0  0  0  0  0  0  0  0
   48.6449   33.2074   39.2605 H   0  0  0  0  0  0  0  0  0  0  0  0
   49.8583   33.9551   41.4776 H   0  0  0  0  0  0  0  0  0  0  0  0
   43.9843   36.7000   44.6641 H   0  0  0  0  0  0  0  0  0  0  0  0
   45.0883   35.9734   42.5276 H   0  0  0  0  0  0  0  0  0  0  0  0
   45.5716   33.3294   46.6805 H   0  0  0  0  0  0  0  0  0  0  0  0
   48.4704   34.0826   44.3497 H   0  0  0  0  0  0  0  0  0  0  0  0
   48.9704   35.6849   40.6846 H   0  0  0  0  0  0  0  0  0  0  0  0
   51.0200   32.3685   39.4541 H   0  0  0  0  0  0  0  0  0  0  0  0
   53.3145   31.4010   39.2485 H   0  0  0  0  0  0  0  0  0  0  0  0
   54.1150   29.8200   41.0221 H   0  0  0  0  0  0  0  0  0  0  0  0
   52.6450   29.2356   42.9346 H   0  0  0  0  0  0  0  0  0  0  0  0
  1 13  1  0
  2  1  1  0
  2  9  1  0
  3  2  1  0
  4  3  1  0
  5  4  1  0
  5  6  1  0
  6  1  1  0
  7 12  2  0
  8  9  2  0
  8  7  1  0
  9 10  1  0
 10 11  2  0
 11 12  1  0
 14  5  1  0
 15  6  1  0
 15 18  1  0
 17 16  1  0
 18 17  2  0
 19 18  1  0
 20 19  2  0
 20 21  1  0
 21 22  2  0
 22 17  1  0
  1 23  1  1
  2 24  1  6
  4 25  1  0
  4 26  1  0
  5 27  1  6
  6 28  1  1
  7 29  1  0
  8 30  1  0
 11 31  1  0
 13 32  1  0
 14 33  1  0
 19 34  1  0
 20 35  1  0
 21 36  1  0
 22 37  1  0
M  ISO  8  23  13  24  13  25  13  26  13  27  13  28  13  29  14  30  14
M  ISO  7  31  14  32   3  33   3  34  14  35  14  36  14  37  14
M  END
>  <minimizedAffinity>  (1) 
-5.55224657

>  <minimizedRMSD>  (1) 
0.284401953

$$$$
