
     RDKit          3D

 42 44  0  0  1  0  0  0  0  0999 V2000
   47.9880   33.3270   42.4060 C   0  0  1  0  0  0  0  0  0  0  0  0
   46.5290   33.6910   42.1520 C   0  0  2  0  0  0  0  0  0  0  0  0
   46.4000   34.6300   41.1690 O   0  0  0  0  0  0  0  0  0  0  0  0
   46.7290   34.0350   39.9820 C   0  0  0  0  0  0  0  0  0  0  0  0
   48.2050   33.7850   39.9440 C   0  0  2  0  0  0  0  0  0  0  0  0
   48.7940   33.1580   41.1910 C   0  0  2  0  0  0  0  0  0  0  0  0
   44.5630   35.8200   44.6020 C   0  0  0  0  0  0  0  0  0  0  0  0
   45.1370   35.3830   43.3990 C   0  0  0  0  0  0  0  0  0  0  0  0
   45.9040   34.1700   43.3950 C   0  0  0  0  0  0  0  0  0  0  0  0
   46.0470   33.4930   44.5460 N   0  0  0  0  0  0  0  0  0  0  0  0
   45.4700   33.9530   45.7030 C   0  0  0  0  0  0  0  0  0  0  0  0
   44.7360   35.1040   45.7320 N   0  0  0  0  0  0  0  0  0  0  0  0
   48.5800   34.1730   43.3320 O   0  0  0  0  0  0  0  0  0  0  0  0
   48.7790   35.0520   39.7300 O   0  0  0  0  0  0  0  0  0  0  0  0
   49.1360   31.8360   40.9000 O   0  0  0  0  0  0  0  0  0  0  0  0
   51.3470   32.4400   41.4150 N   0  0  0  0  0  0  0  0  0  0  0  0
   51.1750   31.8300   42.7490 C   0  0  0  0  0  0  0  0  0  0  0  0
   51.6290   30.4320   42.4200 C   0  0  0  0  0  0  0  0  0  0  0  0
   50.8300   30.1960   41.1500 C   0  0  0  0  0  0  0  0  0  0  0  0
   50.4480   31.6050   40.6530 C   0  0  1  0  0  0  0  0  0  0  0  0
   50.9500   31.5650   39.2460 C   0  0  0  0  0  0  0  0  0  0  0  0
   50.1020   32.1250   38.3110 F   0  0  0  0  0  0  0  0  0  0  0  0
   50.9150   30.1960   38.9140 F   0  0  0  0  0  0  0  0  0  0  0  0
   52.2590   31.8710   39.0350 F   0  0  0  0  0  0  0  0  0  0  0  0
   47.9616   32.3224   42.8534 H   0  0  0  0  0  0  0  0  0  0  0  0
   46.0149   32.7808   41.8095 H   0  0  0  0  0  0  0  0  0  0  0  0
   46.1923   33.0793   39.8892 H   0  0  0  0  0  0  0  0  0  0  0  0
   46.4463   34.6953   39.1489 H   0  0  0  0  0  0  0  0  0  0  0  0
   48.4185   33.0467   39.1570 H   0  0  0  0  0  0  0  0  0  0  0  0
   49.7075   33.7088   41.4596 H   0  0  0  0  0  0  0  0  0  0  0  0
   43.9714   36.7471   44.6239 H   0  0  0  0  0  0  0  0  0  0  0  0
   45.0013   35.9611   42.4730 H   0  0  0  0  0  0  0  0  0  0  0  0
   45.6024   33.3791   46.6320 H   0  0  0  0  0  0  0  0  0  0  0  0
   48.3636   33.8637   44.2472 H   0  0  0  0  0  0  0  0  0  0  0  0
   48.9722   35.4784   40.6023 H   0  0  0  0  0  0  0  0  0  0  0  0
   51.0560   33.4280   41.4039 H   0  0  0  0  0  0  0  0  0  0  0  0
   51.8150   32.3053   43.5070 H   0  0  0  0  0  0  0  0  0  0  0  0
   50.1684   31.9136   43.1846 H   0  0  0  0  0  0  0  0  0  0  0  0
   52.7126   30.3858   42.2366 H   0  0  0  0  0  0  0  0  0  0  0  0
   51.4690   29.6902   43.2163 H   0  0  0  0  0  0  0  0  0  0  0  0
   51.4416   29.6737   40.3996 H   0  0  0  0  0  0  0  0  0  0  0  0
   49.9459   29.5663   41.3284 H   0  0  0  0  0  0  0  0  0  0  0  0
  1 13  1  0
  2  1  1  0
  2  9  1  0
  3  2  1  0
  4  3  1  0
  5  4  1  0
  5  6  1  0
  6  1  1  0
  7 12  2  0
  8  7  1  0
  9  8  2  0
  9 10  1  0
 10 11  2  0
 11 12  1  0
 14  5  1  0
 15  6  1  0
 16 17  1  0
 18 17  1  0
 19 18  1  0
 20 15  1  6
 20 19  1  0
 20 16  1  0
 21 20  1  0
 22 21  1  0
 23 21  1  0
 24 21  1  0
  1 25  1  1
  2 26  1  6
  4 27  1  0
  4 28  1  0
  5 29  1  6
  6 30  1  1
  7 31  1  0
  8 32  1  0
 11 33  1  0
 13 34  1  0
 14 35  1  0
 16 36  1  0
 17 37  1  0
 17 38  1  0
 18 39  1  0
 18 40  1  0
 19 41  1  0
 19 42  1  0
M  ISO  8  25  13  26  13  27  13  28  13  29  13  30  13  31  14  32  14
M  ISO  8  33  14  34   3  35   3  36   5  37  13  38  13  39  13  40  13
M  ISO  2  41  13  42  13
M  END
>  <minimizedAffinity>  (1) 
-5.55932331

>  <minimizedRMSD>  (1) 
0.837166131

$$$$
