
     RDKit          3D

 36 39  0  0  0  0  0  0  0  0999 V2000
   44.4960   35.8160   45.0360 C   0  0  0  0  0  0  0  0  0  0  0  0
   45.0890   35.8220   43.7370 C   0  0  0  0  0  0  0  0  0  0  0  0
   45.9460   34.7570   43.4240 C   0  0  0  0  0  0  0  0  0  0  0  0
   46.1650   33.8020   44.3430 N   0  0  0  0  0  0  0  0  0  0  0  0
   45.5900   33.8160   45.5740 C   0  0  0  0  0  0  0  0  0  0  0  0
   44.7680   34.8220   45.8950 N   0  0  0  0  0  0  0  0  0  0  0  0
   47.8810   35.1970   42.0240 C   0  0  0  0  0  0  0  0  0  0  0  0
   46.6140   34.6440   42.1420 C   0  0  0  0  0  0  0  0  0  0  0  0
   46.0710   34.0310   41.0410 C   0  0  0  0  0  0  0  0  0  0  0  0
   46.7410   33.9480   39.8270 C   0  0  0  0  0  0  0  0  0  0  0  0
   46.3870   33.3970   38.6340 N   0  0  0  0  0  0  0  0  0  0  0  0
   47.4200   33.6050   37.7790 C   0  0  0  0  0  0  0  0  0  0  0  0
   48.3970   34.2800   38.4520 N   0  0  0  0  0  0  0  0  0  0  0  0
   48.0020   34.5020   39.7170 C   0  0  0  0  0  0  0  0  0  0  0  0
   48.5620   35.1210   40.8100 C   0  0  0  0  0  0  0  0  0  0  0  0
   46.4830   31.5880   46.2450 C   0  0  0  0  0  0  0  0  0  0  0  0
   45.8420   32.7660   46.5550 C   0  0  0  0  0  0  0  0  0  0  0  0
   45.4440   32.9140   47.8540 C   0  0  0  0  0  0  0  0  0  0  0  0
   45.6320   31.9910   48.8550 C   0  0  0  0  0  0  0  0  0  0  0  0
   46.2760   30.8100   48.5370 C   0  0  0  0  0  0  0  0  0  0  0  0
   46.6870   30.6370   47.2320 C   0  0  0  0  0  0  0  0  0  0  0  0
   47.0330   31.2870   44.6360 S   0  0  0  0  0  0  0  0  0  0  0  0
   48.2920   30.4310   44.6370 O   0  0  0  0  0  0  0  0  0  0  0  0
   45.9990   30.4600   43.8840 O   0  0  0  0  0  0  0  0  0  0  0  0
   43.8152   36.6275   45.3328 H   0  0  0  0  0  0  0  0  0  0  0  0
   44.8829   36.6256   43.0146 H   0  0  0  0  0  0  0  0  0  0  0  0
   48.3474   35.6946   42.8870 H   0  0  0  0  0  0  0  0  0  0  0  0
   45.0672   33.5886   41.1228 H   0  0  0  0  0  0  0  0  0  0  0  0
   45.5028   32.9138   38.4206 H   0  0  0  0  0  0  0  0  0  0  0  0
   47.4626   33.2855   36.7273 H   0  0  0  0  0  0  0  0  0  0  0  0
   49.5652   35.5641   40.7248 H   0  0  0  0  0  0  0  0  0  0  0  0
   44.9305   33.8495   48.1206 H   0  0  0  0  0  0  0  0  0  0  0  0
   45.2804   32.1864   49.8788 H   0  0  0  0  0  0  0  0  0  0  0  0
   46.4543   30.0357   49.2977 H   0  0  0  0  0  0  0  0  0  0  0  0
   47.1999   29.7020   46.9624 H   0  0  0  0  0  0  0  0  0  0  0  0
   47.2570   32.5097   44.0601 H   0  0  0  0  0  0  0  0  0  0  0  0
  1  6  2  0
  2  1  1  0
  3  2  2  0
  3  4  1  0
  4  5  2  0
  5  6  1  0
  5 17  1  0
  7  8  2  0
  8  3  1  0
  9  8  1  0
 10  9  2  0
 11 10  1  0
 12 13  2  0
 12 11  1  0
 13 14  1  0
 14 10  1  0
 14 15  2  0
 15  7  1  0
 16 17  2  0
 16 21  1  0
 17 18  1  0
 18 19  2  0
 20 19  1  0
 21 20  2  0
 22 23  2  0
 22 16  1  0
 24 22  2  0
  1 25  1  0
  2 26  1  0
  7 27  1  0
  9 28  1  0
 11 29  1  0
 12 30  1  0
 15 31  1  0
 18 32  1  0
 19 33  1  0
 20 34  1  0
 21 35  1  0
 22 36  1  0
M  ISO  8  25  14  26  14  27  14  28  14  29   9  30  14  31  14  32  14
M  ISO  4  33  14  34  14  35  14  36  11
M  END
>  <minimizedAffinity>  (1) 
-6.95336628

>  <minimizedRMSD>  (1) 
0.71172595

$$$$
