
     RDKit          3D

 26 28  0  0  0  0  0  0  0  0999 V2000
   47.8890   35.2180   41.9310 C   0  0  0  0  0  0  0  0  0  0  0  0
   46.6070   34.7050   42.0410 C   0  0  0  0  0  0  0  0  0  0  0  0
   46.0620   34.0850   40.9460 C   0  0  0  0  0  0  0  0  0  0  0  0
   46.7070   33.9360   39.7340 C   0  0  0  0  0  0  0  0  0  0  0  0
   46.3700   33.3770   38.5570 N   0  0  0  0  0  0  0  0  0  0  0  0
   47.4260   33.5310   37.7030 C   0  0  0  0  0  0  0  0  0  0  0  0
   48.4190   34.1960   38.3810 N   0  0  0  0  0  0  0  0  0  0  0  0
   47.9940   34.4500   39.6240 C   0  0  0  0  0  0  0  0  0  0  0  0
   48.5670   35.0810   40.7140 C   0  0  0  0  0  0  0  0  0  0  0  0
   44.4630   35.9500   44.8890 C   0  0  0  0  0  0  0  0  0  0  0  0
   45.0680   35.9040   43.6100 C   0  0  0  0  0  0  0  0  0  0  0  0
   45.9270   34.8620   43.3140 C   0  0  0  0  0  0  0  0  0  0  0  0
   46.1630   33.9150   44.2630 N   0  0  0  0  0  0  0  0  0  0  0  0
   45.5630   33.9910   45.4850 C   0  0  0  0  0  0  0  0  0  0  0  0
   44.7290   34.9980   45.7760 N   0  0  0  0  0  0  0  0  0  0  0  0
   45.8220   32.9440   46.5370 C   0  0  0  0  0  0  0  0  0  0  0  0
   45.7020   31.6880   46.0110 F   0  0  0  0  0  0  0  0  0  0  0  0
   47.1270   33.0740   47.0190 F   0  0  0  0  0  0  0  0  0  0  0  0
   44.9740   33.1990   47.5890 F   0  0  0  0  0  0  0  0  0  0  0  0
   48.3653   35.7235   42.7840 H   0  0  0  0  0  0  0  0  0  0  0  0
   45.0437   33.6795   41.0392 H   0  0  0  0  0  0  0  0  0  0  0  0
   45.4755   32.9153   38.3387 H   0  0  0  0  0  0  0  0  0  0  0  0
   47.4726   33.1847   36.6600 H   0  0  0  0  0  0  0  0  0  0  0  0
   49.5852   35.4869   40.6215 H   0  0  0  0  0  0  0  0  0  0  0  0
   43.7763   36.7698   45.1468 H   0  0  0  0  0  0  0  0  0  0  0  0
   44.8581   36.6846   42.8639 H   0  0  0  0  0  0  0  0  0  0  0  0
  1  2  2  0
  2 12  1  0
  3  2  1  0
  4  3  2  0
  5  4  1  0
  6  7  2  0
  6  5  1  0
  7  8  1  0
  8  4  1  0
  8  9  2  0
  9  1  1  0
 10 15  2  0
 11 10  1  0
 12 11  2  0
 12 13  1  0
 13 14  2  0
 14 15  1  0
 14 16  1  0
 16 18  1  0
 16 19  1  0
 17 16  1  0
  1 20  1  0
  3 21  1  0
  5 22  1  0
  6 23  1  0
  9 24  1  0
 10 25  1  0
 11 26  1  0
M  ISO  7  20  14  21  14  22   9  23  14  24  14  25  14  26  14
M  END
>  <minimizedAffinity>  (1) 
-6.47872448

>  <minimizedRMSD>  (1) 
0.00977388117

$$$$
