
     RDKit          3D

 30 33  0  0  0  0  0  0  0  0999 V2000
   47.9180   35.2020   42.0080 C   0  0  0  0  0  0  0  0  0  0  0  0
   46.6770   34.5950   42.1230 C   0  0  0  0  0  0  0  0  0  0  0  0
   46.1490   33.9870   41.0130 C   0  0  0  0  0  0  0  0  0  0  0  0
   46.7850   33.9480   39.7920 C   0  0  0  0  0  0  0  0  0  0  0  0
   46.4490   33.4120   38.5890 N   0  0  0  0  0  0  0  0  0  0  0  0
   47.4700   33.6790   37.7200 C   0  0  0  0  0  0  0  0  0  0  0  0
   48.4200   34.3750   38.3950 N   0  0  0  0  0  0  0  0  0  0  0  0
   48.0300   34.5560   39.6710 C   0  0  0  0  0  0  0  0  0  0  0  0
   48.5770   35.1710   40.7720 C   0  0  0  0  0  0  0  0  0  0  0  0
   44.6010   35.5960   45.1100 C   0  0  0  0  0  0  0  0  0  0  0  0
   45.1750   35.6720   43.8170 C   0  0  0  0  0  0  0  0  0  0  0  0
   46.0220   34.6450   43.4200 C   0  0  0  0  0  0  0  0  0  0  0  0
   46.2630   33.6200   44.2800 N   0  0  0  0  0  0  0  0  0  0  0  0
   45.6990   33.5760   45.5140 C   0  0  0  0  0  0  0  0  0  0  0  0
   44.8810   34.5610   45.9070 N   0  0  0  0  0  0  0  0  0  0  0  0
   46.0280   32.4080   46.3820 C   0  0  0  0  0  0  0  0  0  0  0  0
   45.6620   32.4990   47.8720 C   0  0  0  0  0  0  0  0  0  0  0  0
   47.0740   32.6000   47.4320 C   0  0  0  0  0  0  0  0  0  0  0  0
   48.3783   35.7004   42.8739 H   0  0  0  0  0  0  0  0  0  0  0  0
   45.1645   33.5045   41.1026 H   0  0  0  0  0  0  0  0  0  0  0  0
   45.5831   32.8983   38.3717 H   0  0  0  0  0  0  0  0  0  0  0  0
   47.5139   33.3825   36.6616 H   0  0  0  0  0  0  0  0  0  0  0  0
   49.5614   35.6531   40.6799 H   0  0  0  0  0  0  0  0  0  0  0  0
   43.9240   36.3901   45.4581 H   0  0  0  0  0  0  0  0  0  0  0  0
   44.9568   36.5178   43.1484 H   0  0  0  0  0  0  0  0  0  0  0  0
   45.8486   31.6864   45.5714 H   0  0  0  0  0  0  0  0  0  0  0  0
   45.1396   33.3864   48.2588 H   0  0  0  0  0  0  0  0  0  0  0  0
   45.1072   31.8668   48.5809 H   0  0  0  0  0  0  0  0  0  0  0  0
   47.7740   31.7822   47.6583 H   0  0  0  0  0  0  0  0  0  0  0  0
   47.8731   33.3394   47.5893 H   0  0  0  0  0  0  0  0  0  0  0  0
  1  2  2  0
  2 12  1  0
  3  2  1  0
  4  3  2  0
  5  4  1  0
  6  7  2  0
  6  5  1  0
  7  8  1  0
  8  4  1  0
  8  9  2  0
  9  1  1  0
 10 15  2  0
 11 10  1  0
 12 11  2  0
 12 13  1  0
 13 14  2  0
 14 15  1  0
 14 16  1  0
 16 18  1  0
 16 17  1  0
 18 17  1  0
  1 19  1  0
  3 20  1  0
  5 21  1  0
  6 22  1  0
  9 23  1  0
 10 24  1  0
 11 25  1  0
 16 26  1  0
 17 27  1  0
 17 28  1  0
 18 29  1  0
 18 30  1  0
M  ISO  8  19  14  20  14  21   9  22  14  23  14  24  14  25  14  26  13
M  ISO  4  27  13  28  13  29  13  30  13
M  END
>  <minimizedAffinity>  (1) 
-6.07594728

>  <minimizedRMSD>  (1) 
0.356021464

$$$$
