
     RDKit          3D

 46 50  0  0  1  0  0  0  0  0999 V2000
   50.0480   32.4500   41.3790 C   0  0  1  0  0  0  0  0  0  0  0  0
   49.1620   32.2120   40.1890 C   0  0  0  0  0  0  0  0  0  0  0  0
   48.6490   32.1080   41.6510 C   0  0  2  0  0  0  0  0  0  0  0  0
   52.9100   30.1450   40.9340 C   0  0  0  0  0  0  0  0  0  0  0  0
   53.0700   29.6220   42.2680 C   0  0  0  0  0  0  0  0  0  0  0  0
   52.1890   30.0860   43.2610 C   0  0  0  0  0  0  0  0  0  0  0  0
   51.2480   30.9790   42.9520 N   0  0  0  0  0  0  0  0  0  0  0  0
   51.1310   31.4480   41.6780 C   0  0  0  0  0  0  0  0  0  0  0  0
   51.9570   31.0420   40.6470 N   0  0  0  0  0  0  0  0  0  0  0  0
   52.2650   29.6220   44.6370 C   0  0  0  0  0  0  0  0  0  0  0  0
   53.2960   30.1010   45.4170 C   0  0  0  0  0  0  0  0  0  0  0  0
   53.4510   29.7120   46.7530 C   0  0  0  0  0  0  0  0  0  0  0  0
   52.5640   28.8280   47.3320 C   0  0  0  0  0  0  0  0  0  0  0  0
   51.5330   28.3510   46.5460 C   0  0  0  0  0  0  0  0  0  0  0  0
   51.3900   28.7410   45.2300 C   0  0  0  0  0  0  0  0  0  0  0  0
   47.7470   33.1200   42.0900 N   0  0  0  0  0  0  0  0  0  0  0  0
   47.1310   33.0810   43.3500 C   0  0  0  0  0  0  0  0  0  0  0  0
   47.4570   32.0810   44.2250 C   0  0  0  0  0  0  0  0  0  0  0  0
   46.9380   32.0160   45.5180 C   0  0  0  0  0  0  0  0  0  0  0  0
   46.0600   32.9750   45.9740 C   0  0  0  0  0  0  0  0  0  0  0  0
   45.7150   33.9920   45.1080 C   0  0  0  0  0  0  0  0  0  0  0  0
   44.8450   34.9670   45.5470 C   0  0  0  0  0  0  0  0  0  0  0  0
   44.4690   36.0010   44.7500 C   0  0  0  0  0  0  0  0  0  0  0  0
   45.0030   36.0280   43.4650 C   0  0  0  0  0  0  0  0  0  0  0  0
   45.8650   35.0490   43.0490 C   0  0  0  0  0  0  0  0  0  0  0  0
   46.2490   34.0150   43.8450 C   0  0  0  0  0  0  0  0  0  0  0  0
   46.3450   35.1310   41.7650 O   0  0  0  0  0  0  0  0  0  0  0  0
   50.6953   33.2798   41.6990 H   0  0  0  0  0  0  0  0  0  0  0  0
   48.8524   33.0507   39.5481 H   0  0  0  0  0  0  0  0  0  0  0  0
   49.1790   31.5566   39.3057 H   0  0  0  0  0  0  0  0  0  0  0  0
   48.1562   31.3440   42.2702 H   0  0  0  0  0  0  0  0  0  0  0  0
   53.5839   29.8006   40.1357 H   0  0  0  0  0  0  0  0  0  0  0  0
   53.8536   28.8860   42.5008 H   0  0  0  0  0  0  0  0  0  0  0  0
   54.0159   30.8075   44.9781 H   0  0  0  0  0  0  0  0  0  0  0  0
   54.2861   30.1141   47.3454 H   0  0  0  0  0  0  0  0  0  0  0  0
   52.6737   28.5146   48.3807 H   0  0  0  0  0  0  0  0  0  0  0  0
   50.8097   27.6443   46.9789 H   0  0  0  0  0  0  0  0  0  0  0  0
   50.5545   28.3369   44.6395 H   0  0  0  0  0  0  0  0  0  0  0  0
   47.5399   33.9081   41.4600 H   0  0  0  0  0  0  0  0  0  0  0  0
   48.1557   31.2977   43.8959 H   0  0  0  0  0  0  0  0  0  0  0  0
   47.2330   31.1896   46.1813 H   0  0  0  0  0  0  0  0  0  0  0  0
   45.6484   32.9312   46.9932 H   0  0  0  0  0  0  0  0  0  0  0  0
   44.4446   34.9062   46.5697 H   0  0  0  0  0  0  0  0  0  0  0  0
   43.7762   36.7790   45.1031 H   0  0  0  0  0  0  0  0  0  0  0  0
   44.7302   36.8426   42.7780 H   0  0  0  0  0  0  0  0  0  0  0  0
   46.9706   34.4429   41.4255 H   0  0  0  0  0  0  0  0  0  0  0  0
  1  3  1  0
  1  8  1  0
  2  1  1  0
  2  3  1  0
  3 16  1  0
  4  5  2  0
  5  6  1  0
  6 10  1  0
  7  6  2  0
  8  7  1  0
  9  4  1  0
  9  8  2  0
 10 15  1  0
 10 11  2  0
 11 12  1  0
 12 13  2  0
 14 13  1  0
 15 14  2  0
 16 17  1  0
 17 26  1  0
 17 18  2  0
 18 19  1  0
 19 20  2  0
 21 22  2  0
 21 20  1  0
 23 22  1  0
 24 23  2  0
 25 24  1  0
 25 26  2  0
 26 21  1  0
 27 25  1  0
  1 28  1  6
  2 29  1  0
  2 30  1  0
  3 31  1  1
  4 32  1  0
  5 33  1  0
 11 34  1  0
 12 35  1  0
 13 36  1  0
 14 37  1  0
 15 38  1  0
 16 39  1  0
 18 40  1  0
 19 41  1  0
 20 42  1  0
 22 43  1  0
 23 44  1  0
 24 45  1  0
 27 46  1  0
M  ISO  8  28  13  29  13  30  13  31  13  32  14  33  14  34  14  35  14
M  ISO  8  36  14  37  14  38  14  40  14  41  14  42  14  43  14  44  14
M  ISO  2  45  14  46   3
M  END
>  <minimizedAffinity>  (1) 
-5.35847998

>  <minimizedRMSD>  (1) 
1.59016407

$$$$
