
     RDKit          3D

 39 43  0  0  0  0  0  0  0  0999 V2000
   44.5920   35.7230   44.8060 C   0  0  0  0  0  0  0  0  0  0  0  0
   45.1840   35.7420   43.5320 C   0  0  0  0  0  0  0  0  0  0  0  0
   46.0890   34.7740   43.1750 C   0  0  0  0  0  0  0  0  0  0  0  0
   46.4000   33.8020   44.0760 N   0  0  0  0  0  0  0  0  0  0  0  0
   45.8100   33.8020   45.3170 C   0  0  0  0  0  0  0  0  0  0  0  0
   44.9270   34.7520   45.6520 N   0  0  0  0  0  0  0  0  0  0  0  0
   47.9830   35.3030   41.7650 C   0  0  0  0  0  0  0  0  0  0  0  0
   46.7580   34.7040   41.8790 C   0  0  0  0  0  0  0  0  0  0  0  0
   46.2240   34.0670   40.7710 C   0  0  0  0  0  0  0  0  0  0  0  0
   46.8670   34.0070   39.5490 C   0  0  0  0  0  0  0  0  0  0  0  0
   46.5560   33.4610   38.3630 N   0  0  0  0  0  0  0  0  0  0  0  0
   47.5800   33.7130   37.5000 C   0  0  0  0  0  0  0  0  0  0  0  0
   48.5310   34.4270   38.1760 N   0  0  0  0  0  0  0  0  0  0  0  0
   48.1080   34.6140   39.4290 C   0  0  0  0  0  0  0  0  0  0  0  0
   48.6460   35.2480   40.5290 C   0  0  0  0  0  0  0  0  0  0  0  0
   45.4900   32.6440   47.4540 C   0  0  0  0  0  0  0  0  0  0  0  0
   46.1710   32.7360   46.2520 C   0  0  0  0  0  0  0  0  0  0  0  0
   47.1610   31.8350   45.9510 C   0  0  0  0  0  0  0  0  0  0  0  0
   47.4660   30.8440   46.8520 C   0  0  0  0  0  0  0  0  0  0  0  0
   48.4140   29.8940   46.6810 N   0  0  0  0  0  0  0  0  0  0  0  0
   48.3580   29.1410   47.8130 C   0  0  0  0  0  0  0  0  0  0  0  0
   47.3890   29.6390   48.6480 N   0  0  0  0  0  0  0  0  0  0  0  0
   46.8270   30.7050   48.0530 C   0  0  0  0  0  0  0  0  0  0  0  0
   45.8300   31.6320   48.3300 C   0  0  0  0  0  0  0  0  0  0  0  0
   45.1200   31.5010   49.6310 C   0  0  0  0  0  0  0  0  0  0  0  0
   43.8658   36.4957   45.0984 H   0  0  0  0  0  0  0  0  0  0  0  0
   44.9210   36.5361   42.8177 H   0  0  0  0  0  0  0  0  0  0  0  0
   48.4387   35.8170   42.6241 H   0  0  0  0  0  0  0  0  0  0  0  0
   45.2399   33.5852   40.8684 H   0  0  0  0  0  0  0  0  0  0  0  0
   45.6938   32.9421   38.1435 H   0  0  0  0  0  0  0  0  0  0  0  0
   47.6325   33.3983   36.4473 H   0  0  0  0  0  0  0  0  0  0  0  0
   49.6310   35.7284   40.4344 H   0  0  0  0  0  0  0  0  0  0  0  0
   44.6952   33.3616   47.7058 H   0  0  0  0  0  0  0  0  0  0  0  0
   47.7051   31.9055   44.9976 H   0  0  0  0  0  0  0  0  0  0  0  0
   49.0398   29.7685   45.8726 H   0  0  0  0  0  0  0  0  0  0  0  0
   48.9918   28.2676   48.0262 H   0  0  0  0  0  0  0  0  0  0  0  0
   45.8368   31.6333   50.4548 H   0  0  0  0  0  0  0  0  0  0  0  0
   44.3362   32.2697   49.7000 H   0  0  0  0  0  0  0  0  0  0  0  0
   44.6621   30.5032   49.7000 H   0  0  0  0  0  0  0  0  0  0  0  0
  1  6  2  0
  2  1  1  0
  3  2  2  0
  3  4  1  0
  4  5  2  0
  5  6  1  0
  5 17  1  0
  7  8  2  0
  8  3  1  0
  9  8  1  0
 10  9  2  0
 11 10  1  0
 12 13  2  0
 12 11  1  0
 13 14  1  0
 14 10  1  0
 14 15  2  0
 15  7  1  0
 16 24  2  0
 17 16  1  0
 18 17  2  0
 18 19  1  0
 19 23  2  0
 20 19  1  0
 20 21  1  0
 21 22  2  0
 23 24  1  0
 23 22  1  0
 24 25  1  0
  1 26  1  0
  2 27  1  0
  7 28  1  0
  9 29  1  0
 11 30  1  0
 12 31  1  0
 15 32  1  0
 16 33  1  0
 18 34  1  0
 20 35  1  0
 21 36  1  0
 25 37  1  0
 25 38  1  0
 25 39  1  0
M  ISO  8  26  14  27  14  28  14  29  14  30   9  31  14  32  14  33  14
M  ISO  6  34  14  35   9  36  14  37   8  38   8  39   8
M  END
>  <minimizedAffinity>  (1) 
-7.37007475

>  <minimizedRMSD>  (1) 
0.497480482

$$$$
