
     RDKit          3D

 19 19  0  0  0  0  0  0  0  0999 V2000
   45.5890   34.9280   43.9260 C   0  0  0  0  0  0  0  0  0  0  0  0
   46.2680   35.2700   42.7550 C   0  0  0  0  0  0  0  0  0  0  0  0
   47.3830   34.5030   42.3770 C   0  0  0  0  0  0  0  0  0  0  0  0
   47.7320   33.4690   43.1790 N   0  0  0  0  0  0  0  0  0  0  0  0
   47.0460   33.1700   44.3070 C   0  0  0  0  0  0  0  0  0  0  0  0
   45.9730   33.8950   44.6880 N   0  0  0  0  0  0  0  0  0  0  0  0
   44.4070   35.7620   44.3020 C   0  0  0  0  0  0  0  0  0  0  0  0
   48.1150   34.8590   41.1310 C   0  0  0  0  0  0  0  0  0  0  0  0
   49.1090   35.9780   41.4530 C   0  0  0  0  0  0  0  0  0  0  0  0
   45.9373   36.1212   42.1418 H   0  0  0  0  0  0  0  0  0  0  0  0
   47.3693   32.3196   44.9253 H   0  0  0  0  0  0  0  0  0  0  0  0
   44.3302   35.8162   45.3980 H   0  0  0  0  0  0  0  0  0  0  0  0
   44.5283   36.7757   43.8924 H   0  0  0  0  0  0  0  0  0  0  0  0
   43.4927   35.3079   43.8924 H   0  0  0  0  0  0  0  0  0  0  0  0
   47.4020   35.2045   40.3679 H   0  0  0  0  0  0  0  0  0  0  0  0
   48.6507   33.9793   40.7448 H   0  0  0  0  0  0  0  0  0  0  0  0
   49.2022   36.0829   42.5440 H   0  0  0  0  0  0  0  0  0  0  0  0
   50.0910   35.7311   41.0232 H   0  0  0  0  0  0  0  0  0  0  0  0
   48.7480   36.9240   41.0232 H   0  0  0  0  0  0  0  0  0  0  0  0
  1  7  1  0
  1  6  2  0
  2  1  1  0
  3  2  2  0
  3  4  1  0
  4  5  2  0
  5  6  1  0
  8  9  1  0
  8  3  1  0
  2 10  1  0
  5 11  1  0
  7 12  1  0
  7 13  1  0
  7 14  1  0
  8 15  1  0
  8 16  1  0
  9 17  1  0
  9 18  1  0
  9 19  1  0
M  ISO  8  10  14  11  14  12   8  13   8  14   8  15   8  16   8  17   8
M  ISO  2  18   8  19   8
M  END
>  <minimizedAffinity>  (1) 
-3.58883643

>  <minimizedRMSD>  (1) 
2.32829332

$$$$
