
     RDKit          3D

 15 15  0  0  0  0  0  0  0  0999 V2000
   45.3990   34.8210   44.4250 C   0  0  0  0  0  0  0  0  0  0  0  0
   46.4010   34.4400   43.5090 C   0  0  0  0  0  0  0  0  0  0  0  0
   47.2450   33.3900   43.8810 C   0  0  0  0  0  0  0  0  0  0  0  0
   47.0590   32.8030   45.0830 N   0  0  0  0  0  0  0  0  0  0  0  0
   46.0770   33.2080   45.9290 C   0  0  0  0  0  0  0  0  0  0  0  0
   45.2410   34.2160   45.6100 N   0  0  0  0  0  0  0  0  0  0  0  0
   44.4990   35.9540   44.0080 C   0  0  0  0  0  0  0  0  0  0  0  0
   48.2790   33.0010   42.9300 C   0  0  0  0  0  0  0  0  0  0  0  0
   49.3670   33.6610   42.8010 O   0  0  0  0  0  0  0  0  0  0  0  0
   46.5139   34.9489   42.5403 H   0  0  0  0  0  0  0  0  0  0  0  0
   45.9610   32.7010   46.8983 H   0  0  0  0  0  0  0  0  0  0  0  0
   44.1012   36.4548   44.9030 H   0  0  0  0  0  0  0  0  0  0  0  0
   45.0724   36.6761   43.4082 H   0  0  0  0  0  0  0  0  0  0  0  0
   43.6659   35.5588   43.4082 H   0  0  0  0  0  0  0  0  0  0  0  0
   48.1184   32.1114   42.3033 H   0  0  0  0  0  0  0  0  0  0  0  0
  1  6  2  0
  2  3  2  0
  2  1  1  0
  3  4  1  0
  4  5  2  0
  6  5  1  0
  7  1  1  0
  8  3  1  0
  9  8  2  0
  2 10  1  0
  5 11  1  0
  7 12  1  0
  7 13  1  0
  7 14  1  0
  8 15  1  0
M  ISO  6  10  14  11  14  12   8  13   8  14   8  15   6
M  END
>  <minimizedAffinity>  (1) 
-2.93001127

>  <minimizedRMSD>  (1) 
0.938192904

$$$$
