
     RDKit          3D

 14 14  0  0  0  0  0  0  0  0999 V2000
   45.4090   35.1050   44.0060 C   0  0  0  0  0  0  0  0  0  0  0  0
   46.4460   34.3250   43.4690 C   0  0  0  0  0  0  0  0  0  0  0  0
   46.9580   33.3010   44.2730 C   0  0  0  0  0  0  0  0  0  0  0  0
   46.4340   33.1200   45.5040 N   0  0  0  0  0  0  0  0  0  0  0  0
   45.4340   33.8940   45.9850 C   0  0  0  0  0  0  0  0  0  0  0  0
   44.9210   34.8940   45.2240 N   0  0  0  0  0  0  0  0  0  0  0  0
   44.8630   36.1990   43.1470 C   0  0  0  0  0  0  0  0  0  0  0  0
   47.9830   32.5290   43.7410 O   0  0  0  0  0  0  0  0  0  0  0  0
   46.8392   34.5114   42.4587 H   0  0  0  0  0  0  0  0  0  0  0  0
   45.0361   33.7126   46.9943 H   0  0  0  0  0  0  0  0  0  0  0  0
   44.4628   37.0009   43.7848 H   0  0  0  0  0  0  0  0  0  0  0  0
   45.6658   36.6018   42.5119 H   0  0  0  0  0  0  0  0  0  0  0  0
   44.0585   35.7997   42.5119 H   0  0  0  0  0  0  0  0  0  0  0  0
   48.3762   31.7931   44.2739 H   0  0  0  0  0  0  0  0  0  0  0  0
  1  6  2  0
  2  1  1  0
  2  3  2  0
  3  4  1  0
  4  5  2  0
  6  5  1  0
  7  1  1  0
  8  3  1  0
  2  9  1  0
  5 10  1  0
  7 11  1  0
  7 12  1  0
  7 13  1  0
  8 14  1  0
M  ISO  6   9  14  10  14  11   8  12   8  13   8  14   3
M  END
>  <minimizedAffinity>  (1) 
-2.85716486

>  <minimizedRMSD>  (1) 
0.0755095258

$$$$
