
     RDKit          3D

 43 47  0  0  1  0  0  0  0  0999 V2000
   50.0750   32.4270   41.3470 C   0  0  1  0  0  0  0  0  0  0  0  0
   49.1520   32.1720   40.1850 C   0  0  0  0  0  0  0  0  0  0  0  0
   48.6860   32.0920   41.6630 C   0  0  2  0  0  0  0  0  0  0  0  0
   52.9560   30.1520   40.8590 C   0  0  0  0  0  0  0  0  0  0  0  0
   53.1510   29.6200   42.1560 C   0  0  0  0  0  0  0  0  0  0  0  0
   52.2860   30.0630   43.1660 C   0  0  0  0  0  0  0  0  0  0  0  0
   51.3260   30.9500   42.8890 N   0  0  0  0  0  0  0  0  0  0  0  0
   51.1710   31.4340   41.6390 C   0  0  0  0  0  0  0  0  0  0  0  0
   51.9820   31.0380   40.6210 N   0  0  0  0  0  0  0  0  0  0  0  0
   52.3360   29.6250   44.5660 C   0  0  0  0  0  0  0  0  0  0  0  0
   53.2200   30.0710   45.5570 C   0  0  0  0  0  0  0  0  0  0  0  0
   53.1160   29.5460   46.8110 C   0  0  0  0  0  0  0  0  0  0  0  0
   52.0980   28.5430   47.0860 C   0  0  0  0  0  0  0  0  0  0  0  0
   51.2860   28.4110   45.3700 S   0  0  0  0  0  0  0  0  0  0  0  0
   47.8210   33.1410   42.1170 N   0  0  0  0  0  0  0  0  0  0  0  0
   47.1780   33.0940   43.3610 C   0  0  0  0  0  0  0  0  0  0  0  0
   47.4890   32.0820   44.2400 C   0  0  0  0  0  0  0  0  0  0  0  0
   46.9540   31.9990   45.5200 C   0  0  0  0  0  0  0  0  0  0  0  0
   46.0710   32.9520   45.9660 C   0  0  0  0  0  0  0  0  0  0  0  0
   45.7440   33.9730   45.1050 C   0  0  0  0  0  0  0  0  0  0  0  0
   44.8530   34.9370   45.5380 C   0  0  0  0  0  0  0  0  0  0  0  0
   44.4690   35.9850   44.7440 C   0  0  0  0  0  0  0  0  0  0  0  0
   45.0170   36.0310   43.4750 C   0  0  0  0  0  0  0  0  0  0  0  0
   45.9050   35.0600   43.0560 C   0  0  0  0  0  0  0  0  0  0  0  0
   46.2890   34.0220   43.8490 C   0  0  0  0  0  0  0  0  0  0  0  0
   46.4180   35.1480   41.7840 O   0  0  0  0  0  0  0  0  0  0  0  0
   50.7336   33.2605   41.6325 H   0  0  0  0  0  0  0  0  0  0  0  0
   48.8240   33.0012   39.5409 H   0  0  0  0  0  0  0  0  0  0  0  0
   49.1409   31.5034   39.3116 H   0  0  0  0  0  0  0  0  0  0  0  0
   48.2033   31.3357   42.2993 H   0  0  0  0  0  0  0  0  0  0  0  0
   53.6132   29.8332   40.0366 H   0  0  0  0  0  0  0  0  0  0  0  0
   53.9475   28.8900   42.3626 H   0  0  0  0  0  0  0  0  0  0  0  0
   53.9829   30.8297   45.3280 H   0  0  0  0  0  0  0  0  0  0  0  0
   53.7965   29.8781   47.6089 H   0  0  0  0  0  0  0  0  0  0  0  0
   51.8643   28.0119   48.0205 H   0  0  0  0  0  0  0  0  0  0  0  0
   47.6669   33.9572   41.5079 H   0  0  0  0  0  0  0  0  0  0  0  0
   48.1937   31.3026   43.9145 H   0  0  0  0  0  0  0  0  0  0  0  0
   47.2391   31.1659   46.1793 H   0  0  0  0  0  0  0  0  0  0  0  0
   45.6404   32.9002   46.9769 H   0  0  0  0  0  0  0  0  0  0  0  0
   44.4385   34.8600   46.5540 H   0  0  0  0  0  0  0  0  0  0  0  0
   43.7618   36.7500   45.0972 H   0  0  0  0  0  0  0  0  0  0  0  0
   44.7428   36.8491   42.7927 H   0  0  0  0  0  0  0  0  0  0  0  0
   47.0565   34.4646   41.4594 H   0  0  0  0  0  0  0  0  0  0  0  0
  1  8  1  0
  1  3  1  0
  2  1  1  0
  2  3  1  0
  3 15  1  0
  4  5  2  0
  5  6  1  0
  6 10  1  0
  7  6  2  0
  8  7  1  0
  9  4  1  0
  9  8  2  0
 10 14  1  0
 10 11  2  0
 11 12  1  0
 12 13  2  0
 14 13  1  0
 15 16  1  0
 16 25  1  0
 16 17  2  0
 17 18  1  0
 18 19  2  0
 20 21  2  0
 20 19  1  0
 22 21  1  0
 23 22  2  0
 24 23  1  0
 24 25  2  0
 25 20  1  0
 26 24  1  0
  1 27  1  6
  2 28  1  0
  2 29  1  0
  3 30  1  1
  4 31  1  0
  5 32  1  0
 11 33  1  0
 12 34  1  0
 13 35  1  0
 15 36  1  0
 17 37  1  0
 18 38  1  0
 19 39  1  0
 21 40  1  0
 22 41  1  0
 23 42  1  0
 26 43  1  0
M  ISO  8  27  13  28  13  29  13  30  13  31  14  32  14  33  14  34  14
M  ISO  8  35  14  37  14  38  14  39  14  40  14  41  14  42  14  43   3
M  END
>  <minimizedAffinity>  (1) 
-5.16622829

>  <minimizedRMSD>  (1) 
1.53618324

$$$$
