
     RDKit          3D

 37 39  0  0  1  0  0  0  0  0999 V2000
   45.0720   35.1240   43.3370 C   0  0  0  0  0  0  0  0  0  0  0  0
   46.2100   34.4040   42.9540 C   0  0  0  0  0  0  0  0  0  0  0  0
   46.8760   33.6390   43.9270 C   0  0  0  0  0  0  0  0  0  0  0  0
   46.3950   33.6300   45.1790 N   0  0  0  0  0  0  0  0  0  0  0  0
   45.2810   34.3440   45.5180 C   0  0  0  0  0  0  0  0  0  0  0  0
   44.6280   35.0840   44.6010 N   0  0  0  0  0  0  0  0  0  0  0  0
   49.0180   33.6970   42.6570 C   0  0  2  0  0  0  0  0  0  0  0  0
   48.0600   32.8960   43.4900 C   0  0  2  0  0  0  0  0  0  0  0  0
   47.7760   31.8400   42.6010 O   0  0  0  0  0  0  0  0  0  0  0  0
   49.0360   31.4150   42.2170 C   0  0  0  0  0  0  0  0  0  0  0  0
   49.9950   32.5700   42.2920 C   0  0  1  0  0  0  0  0  0  0  0  0
   49.6130   34.7290   43.3380 O   0  0  0  0  0  0  0  0  0  0  0  0
   50.6070   32.8580   41.0900 O   0  0  0  0  0  0  0  0  0  0  0  0
   44.3560   35.9400   42.3090 C   0  0  0  0  0  0  0  0  0  0  0  0
   43.7480   35.1440   41.2840 N   0  0  0  0  0  0  0  0  0  0  0  0
   44.5870   34.4540   40.4890 C   0  0  0  0  0  0  0  0  0  0  0  0
   44.1060   33.6570   39.4710 C   0  0  0  0  0  0  0  0  0  0  0  0
   42.7550   33.5310   39.2270 C   0  0  0  0  0  0  0  0  0  0  0  0
   42.2840   32.7040   38.1740 N   0  0  0  0  0  0  0  0  0  0  0  0
   41.9490   34.2360   40.0430 N   0  0  0  0  0  0  0  0  0  0  0  0
   42.4350   35.0060   41.0270 C   0  0  0  0  0  0  0  0  0  0  0  0
   41.6580   35.6540   41.7760 O   0  0  0  0  0  0  0  0  0  0  0  0
   46.5741   34.4362   41.9165 H   0  0  0  0  0  0  0  0  0  0  0  0
   44.9120   34.3144   46.5539 H   0  0  0  0  0  0  0  0  0  0  0  0
   48.5681   34.2342   41.8091 H   0  0  0  0  0  0  0  0  0  0  0  0
   48.4668   32.5769   44.4609 H   0  0  0  0  0  0  0  0  0  0  0  0
   48.9972   31.0362   41.1850 H   0  0  0  0  0  0  0  0  0  0  0  0
   49.3740   30.6117   42.8882 H   0  0  0  0  0  0  0  0  0  0  0  0
   50.8333   32.3940   42.9821 H   0  0  0  0  0  0  0  0  0  0  0  0
   49.5247   34.5759   44.3121 H   0  0  0  0  0  0  0  0  0  0  0  0
   51.4894   33.2733   41.2601 H   0  0  0  0  0  0  0  0  0  0  0  0
   43.5707   36.5245   42.8106 H   0  0  0  0  0  0  0  0  0  0  0  0
   45.1029   36.5855   41.8237 H   0  0  0  0  0  0  0  0  0  0  0  0
   45.6722   34.5268   40.6536 H   0  0  0  0  0  0  0  0  0  0  0  0
   44.8185   33.1080   38.8378 H   0  0  0  0  0  0  0  0  0  0  0  0
   41.2724   32.6171   38.0005 H   0  0  0  0  0  0  0  0  0  0  0  0
   42.9538   32.1907   37.5833 H   0  0  0  0  0  0  0  0  0  0  0  0
  1  6  1  0
  2  1  2  0
  2  3  1  0
  3  4  2  0
  4  5  1  0
  6  5  2  0
  7 12  1  0
  7  8  1  0
  8  3  1  0
  9  8  1  0
 10 11  1  0
 10  9  1  0
 11  7  1  0
 13 11  1  0
 14  1  1  0
 15 14  1  0
 16 15  1  0
 17 16  2  0
 18 17  1  0
 18 20  2  0
 19 18  1  0
 20 21  1  0
 21 15  1  0
 21 22  2  0
  2 23  1  0
  5 24  1  0
  7 25  1  6
  8 26  1  1
 10 27  1  0
 10 28  1  0
 11 29  1  1
 12 30  1  0
 13 31  1  0
 14 32  1  0
 14 33  1  0
 16 34  1  0
 17 35  1  0
 19 36  1  0
 19 37  1  0
M  ISO  8  23  14  24  14  25  13  26  13  27  13  28  13  29  13  30   3
M  ISO  5  31   3  32   8  33   8  34  14  35  14
M  END
>  <minimizedAffinity>  (1) 
-5.52951097

>  <minimizedRMSD>  (1) 
4.34208822

$$$$
