
     RDKit          3D

 34 35  0  0  1  0  0  0  0  0999 V2000
   45.3160   34.8720   43.6080 C   0  0  0  0  0  0  0  0  0  0  0  0
   46.4220   34.2050   43.0970 C   0  0  0  0  0  0  0  0  0  0  0  0
   47.1450   33.3740   43.9530 C   0  0  0  0  0  0  0  0  0  0  0  0
   46.7360   33.2610   45.2380 N   0  0  0  0  0  0  0  0  0  0  0  0
   45.6480   33.9290   45.7040 C   0  0  0  0  0  0  0  0  0  0  0  0
   44.9390   34.7320   44.8960 N   0  0  0  0  0  0  0  0  0  0  0  0
   49.1630   33.5400   42.5090 C   0  0  2  0  0  0  0  0  0  0  0  0
   48.3010   32.6730   43.4060 C   0  0  2  0  0  0  0  0  0  0  0  0
   47.9880   31.6460   42.5180 O   0  0  0  0  0  0  0  0  0  0  0  0
   49.1960   31.2750   41.9760 C   0  0  0  0  0  0  0  0  0  0  0  0
   50.1350   32.4530   42.0280 C   0  0  1  0  0  0  0  0  0  0  0  0
   49.8060   34.5470   43.2080 O   0  0  0  0  0  0  0  0  0  0  0  0
   50.6550   32.8150   40.8070 O   0  0  0  0  0  0  0  0  0  0  0  0
   44.5260   35.8010   42.7140 C   0  0  0  0  0  0  0  0  0  0  0  0
   43.1140   35.7060   42.9960 N   0  0  0  0  0  0  0  0  0  0  0  0
   42.3360   35.1300   41.5500 S   0  0  0  0  0  0  0  0  0  0  0  0
   43.3340   35.2080   40.4060 O   0  0  0  0  0  0  0  0  0  0  0  0
   41.1190   35.9610   41.2180 O   0  0  0  0  0  0  0  0  0  0  0  0
   41.8190   33.5420   41.7000 O   0  0  0  0  0  0  0  0  0  0  0  0
   46.7199   34.3287   42.0453 H   0  0  0  0  0  0  0  0  0  0  0  0
   45.3454   33.8101   46.7549 H   0  0  0  0  0  0  0  0  0  0  0  0
   48.6314   34.0949   41.7219 H   0  0  0  0  0  0  0  0  0  0  0  0
   48.7875   32.3312   44.3315 H   0  0  0  0  0  0  0  0  0  0  0  0
   49.0520   30.9631   40.9310 H   0  0  0  0  0  0  0  0  0  0  0  0
   49.6189   30.4349   42.5464 H   0  0  0  0  0  0  0  0  0  0  0  0
   51.0250   32.2608   42.6452 H   0  0  0  0  0  0  0  0  0  0  0  0
   49.7056   34.3898   44.1803 H   0  0  0  0  0  0  0  0  0  0  0  0
   51.4597   33.3752   40.9440 H   0  0  0  0  0  0  0  0  0  0  0  0
   44.7031   35.5275   41.6634 H   0  0  0  0  0  0  0  0  0  0  0  0
   44.8541   36.8341   42.9013 H   0  0  0  0  0  0  0  0  0  0  0  0
   42.9527   35.0459   43.7701 H   0  0  0  0  0  0  0  0  0  0  0  0
   44.2509   35.2797   40.7723 H   0  0  0  0  0  0  0  0  0  0  0  0
   40.6837   36.2582   42.0560 H   0  0  0  0  0  0  0  0  0  0  0  0
   41.7431   33.3089   42.6592 H   0  0  0  0  0  0  0  0  0  0  0  0
  1  6  2  0
  2  1  1  0
  2  3  2  0
  3  4  1  0
  4  5  2  0
  6  5  1  0
  7 12  1  0
  7  8  1  0
  8  3  1  0
  9  8  1  0
 10 11  1  0
 10  9  1  0
 11  7  1  0
 13 11  1  0
 14 15  1  0
 14  1  1  0
 16 19  1  0
 16 15  1  0
 17 16  1  0
 18 16  1  0
  2 20  1  0
  5 21  1  0
  7 22  1  6
  8 23  1  1
 10 24  1  0
 10 25  1  0
 11 26  1  1
 12 27  1  0
 13 28  1  0
 14 29  1  0
 14 30  1  0
 15 31  1  0
 17 32  1  0
 18 33  1  0
 19 34  1  0
M  ISO  8  20  14  21  14  22  13  23  13  24  13  25  13  26  13  27   3
M  ISO  7  28   3  29   8  30   8  31   5  32   3  33   3  34   3
M  END
>  <minimizedAffinity>  (1) 
-5.39369154

>  <minimizedRMSD>  (1) 
1.24631882

$$$$
