
     RDKit          3D

 33 35  0  0  1  0  0  0  0  0999 V2000
   45.1550   34.3870   41.2570 C   0  0  0  0  0  0  0  0  0  0  0  0
   46.3530   33.6560   41.3960 C   0  0  0  0  0  0  0  0  0  0  0  0
   47.1960   33.9860   42.4580 C   0  0  0  0  0  0  0  0  0  0  0  0
   46.8270   34.9730   43.2880 N   0  0  0  0  0  0  0  0  0  0  0  0
   45.6600   35.6530   43.1180 C   0  0  0  0  0  0  0  0  0  0  0  0
   44.8340   35.3640   42.1150 N   0  0  0  0  0  0  0  0  0  0  0  0
   49.6810   33.9900   42.2900 C   0  0  2  0  0  0  0  0  0  0  0  0
   48.4240   33.2170   42.5780 C   0  0  2  0  0  0  0  0  0  0  0  0
   48.5530   32.1690   41.6400 O   0  0  0  0  0  0  0  0  0  0  0  0
   49.8300   31.6970   41.8670 C   0  0  0  0  0  0  0  0  0  0  0  0
   50.6860   32.8240   42.3670 C   0  0  1  0  0  0  0  0  0  0  0  0
   49.9300   34.9850   43.2010 O   0  0  0  0  0  0  0  0  0  0  0  0
   51.7780   33.1050   41.5740 O   0  0  0  0  0  0  0  0  0  0  0  0
   44.2480   34.0280   40.0950 C   0  0  0  0  0  0  0  0  0  0  0  0
   42.9980   34.9110   40.1390 C   0  0  0  0  0  0  0  0  0  0  0  0
   42.2720   35.1730   38.8190 C   0  0  0  0  0  0  0  0  0  0  0  0
   41.6810   34.2700   39.8450 C   0  0  0  0  0  0  0  0  0  0  0  0
   46.6141   32.8529   40.6911 H   0  0  0  0  0  0  0  0  0  0  0  0
   45.3949   36.4556   43.8220 H   0  0  0  0  0  0  0  0  0  0  0  0
   49.6836   34.5575   41.3477 H   0  0  0  0  0  0  0  0  0  0  0  0
   48.3320   32.8821   43.6217 H   0  0  0  0  0  0  0  0  0  0  0  0
   49.7986   30.8957   42.6199 H   0  0  0  0  0  0  0  0  0  0  0  0
   50.2502   31.2977   40.9321 H   0  0  0  0  0  0  0  0  0  0  0  0
   51.1278   32.6089   43.3511 H   0  0  0  0  0  0  0  0  0  0  0  0
   49.8394   34.6231   44.1180 H   0  0  0  0  0  0  0  0  0  0  0  0
   52.5594   33.3061   42.1476 H   0  0  0  0  0  0  0  0  0  0  0  0
   43.9542   32.9707   40.1709 H   0  0  0  0  0  0  0  0  0  0  0  0
   44.7813   34.1903   39.1467 H   0  0  0  0  0  0  0  0  0  0  0  0
   43.4009   35.5336   40.9514 H   0  0  0  0  0  0  0  0  0  0  0  0
   42.6669   34.7578   37.8801 H   0  0  0  0  0  0  0  0  0  0  0  0
   41.9333   36.0685   38.2774 H   0  0  0  0  0  0  0  0  0  0  0  0
   40.7848   34.5865   40.3987 H   0  0  0  0  0  0  0  0  0  0  0  0
   41.3172   33.2319   39.8362 H   0  0  0  0  0  0  0  0  0  0  0  0
  1  2  2  0
  1  6  1  0
  2  3  1  0
  3  8  1  0
  3  4  2  0
  5  4  1  0
  6  5  2  0
  7 11  1  0
  7  8  1  0
  7 12  1  0
  9 10  1  0
  9  8  1  0
 10 11  1  0
 13 11  1  0
 14 15  1  0
 14  1  1  0
 16 17  1  0
 16 15  1  0
 17 15  1  0
  2 18  1  0
  5 19  1  0
  7 20  1  6
  8 21  1  1
 10 22  1  0
 10 23  1  0
 11 24  1  1
 12 25  1  0
 13 26  1  0
 14 27  1  0
 14 28  1  0
 15 29  1  0
 16 30  1  0
 16 31  1  0
 17 32  1  0
 17 33  1  0
M  ISO  8  18  14  19  14  20  13  21  13  22  13  23  13  24  13  25   3
M  ISO  8  26   3  27   8  28   8  29  13  30  13  31  13  32  13  33  13
M  END
>  <minimizedAffinity>  (1) 
-4.78402042

>  <minimizedRMSD>  (1) 
3.2669518

$$$$
