
     RDKit          3D

 40 42  0  0  1  0  0  0  0  0999 V2000
   45.5290   35.6260   43.6770 C   0  0  0  0  0  0  0  0  0  0  0  0
   46.5800   34.8180   43.2090 C   0  0  0  0  0  0  0  0  0  0  0  0
   46.9740   33.7010   43.9850 C   0  0  0  0  0  0  0  0  0  0  0  0
   46.3280   33.4780   45.1140 N   0  0  0  0  0  0  0  0  0  0  0  0
   45.3180   34.2680   45.5470 C   0  0  0  0  0  0  0  0  0  0  0  0
   44.9170   35.3510   44.8220 N   0  0  0  0  0  0  0  0  0  0  0  0
   49.0620   33.6500   42.6320 C   0  0  2  0  0  0  0  0  0  0  0  0
   48.0690   32.9140   43.4340 C   0  0  2  0  0  0  0  0  0  0  0  0
   47.6410   31.9040   42.5000 O   0  0  0  0  0  0  0  0  0  0  0  0
   48.8790   31.3920   42.1200 C   0  0  0  0  0  0  0  0  0  0  0  0
   49.9160   32.4460   42.1780 C   0  0  1  0  0  0  0  0  0  0  0  0
   49.7540   34.6120   43.2770 O   0  0  0  0  0  0  0  0  0  0  0  0
   50.5030   32.7490   40.9450 O   0  0  0  0  0  0  0  0  0  0  0  0
   45.1270   36.8180   42.8440 C   0  0  0  0  0  0  0  0  0  0  0  0
   45.4390   39.1860   43.8490 C   0  0  0  0  0  0  0  0  0  0  0  0
   46.2750   39.4440   42.9520 O   0  0  0  0  0  0  0  0  0  0  0  0
   44.8500   37.8970   43.7820 N   0  0  0  0  0  0  0  0  0  0  0  0
   45.0590   40.1070   44.9120 C   0  0  0  0  0  0  0  0  0  0  0  0
   45.1890   39.7220   46.2180 C   0  0  0  0  0  0  0  0  0  0  0  0
   44.8030   40.6630   47.1810 C   0  0  0  0  0  0  0  0  0  0  0  0
   44.3070   41.9330   46.8740 C   0  0  0  0  0  0  0  0  0  0  0  0
   44.2140   42.2240   45.5320 C   0  0  0  0  0  0  0  0  0  0  0  0
   44.5770   41.3410   44.6020 N   0  0  0  0  0  0  0  0  0  0  0  0
   43.7200   43.4870   45.2320 O   0  0  0  0  0  0  0  0  0  0  0  0
   47.0857   35.0487   42.2598 H   0  0  0  0  0  0  0  0  0  0  0  0
   44.8140   34.0334   46.4962 H   0  0  0  0  0  0  0  0  0  0  0  0
   48.6319   34.2713   41.8326 H   0  0  0  0  0  0  0  0  0  0  0  0
   48.4992   32.5252   44.3687 H   0  0  0  0  0  0  0  0  0  0  0  0
   48.8113   31.0071   41.0918 H   0  0  0  0  0  0  0  0  0  0  0  0
   49.1561   30.5821   42.8108 H   0  0  0  0  0  0  0  0  0  0  0  0
   50.7646   32.1571   42.8155 H   0  0  0  0  0  0  0  0  0  0  0  0
   49.6627   34.4851   44.2546 H   0  0  0  0  0  0  0  0  0  0  0  0
   51.3726   33.1979   41.0949 H   0  0  0  0  0  0  0  0  0  0  0  0
   45.9455   37.1029   42.1666 H   0  0  0  0  0  0  0  0  0  0  0  0
   44.2480   36.5932   42.2221 H   0  0  0  0  0  0  0  0  0  0  0  0
   44.1304   37.6978   44.4915 H   0  0  0  0  0  0  0  0  0  0  0  0
   45.5746   38.7301   46.4961 H   0  0  0  0  0  0  0  0  0  0  0  0
   44.8957   40.3861   48.2415 H   0  0  0  0  0  0  0  0  0  0  0  0
   44.0109   42.6516   47.6524 H   0  0  0  0  0  0  0  0  0  0  0  0
   43.6238   43.7695   44.2881 H   0  0  0  0  0  0  0  0  0  0  0  0
  1  6  1  0
  2  1  2  0
  2  3  1  0
  3  4  2  0
  4  5  1  0
  6  5  2  0
  7 12  1  0
  7  8  1  0
  8  3  1  0
  9  8  1  0
 10 11  1  0
 10  9  1  0
 11  7  1  0
 13 11  1  0
 14  1  1  0
 14 17  1  0
 15 18  1  0
 16 15  2  0
 17 15  1  0
 18 19  2  0
 19 20  1  0
 21 20  2  0
 22 21  1  0
 23 18  1  0
 23 22  2  0
 24 22  1  0
  2 25  1  0
  5 26  1  0
  7 27  1  6
  8 28  1  1
 10 29  1  0
 10 30  1  0
 11 31  1  1
 12 32  1  0
 13 33  1  0
 14 34  1  0
 14 35  1  0
 17 36  1  0
 19 37  1  0
 20 38  1  0
 21 39  1  0
 24 40  1  0
M  ISO  8  25  14  26  14  27  13  28  13  29  13  30  13  31  13  32   3
M  ISO  7  33   3  34   8  35   8  37  14  38  14  39  14  40   3
M  END
>  <minimizedAffinity>  (1) 
-4.96091795

>  <minimizedRMSD>  (1) 
0.113924257

$$$$
