
     RDKit          3D

 44 48  0  0  1  0  0  0  0  0999 V2000
   50.0230   31.8060   41.9830 C   0  0  1  0  0  0  0  0  0  0  0  0
   49.3210   31.7950   40.6530 C   0  0  0  0  0  0  0  0  0  0  0  0
   48.5630   31.7470   42.0100 C   0  0  2  0  0  0  0  0  0  0  0  0
   51.2100   28.3020   42.1890 C   0  0  0  0  0  0  0  0  0  0  0  0
   52.2890   28.4230   43.1340 C   0  0  0  0  0  0  0  0  0  0  0  0
   52.5770   29.7160   43.6720 C   0  0  0  0  0  0  0  0  0  0  0  0
   51.8420   30.7500   43.2830 N   0  0  0  0  0  0  0  0  0  0  0  0
   50.8260   30.5920   42.3830 C   0  0  0  0  0  0  0  0  0  0  0  0
   50.4970   29.3780   41.8280 N   0  0  0  0  0  0  0  0  0  0  0  0
   53.6710   29.8110   44.6240 C   0  0  0  0  0  0  0  0  0  0  0  0
   53.3950   30.1950   45.9090 C   0  0  0  0  0  0  0  0  0  0  0  0
   54.4820   30.2630   46.7550 C   0  0  0  0  0  0  0  0  0  0  0  0
   55.7570   29.9730   46.3690 N   0  0  0  0  0  0  0  0  0  0  0  0
   55.9750   29.5960   45.0760 C   0  0  0  0  0  0  0  0  0  0  0  0
   54.9170   29.5210   44.2210 N   0  0  0  0  0  0  0  0  0  0  0  0
   47.8240   32.9150   42.3720 N   0  0  0  0  0  0  0  0  0  0  0  0
   47.1160   33.0070   43.5790 C   0  0  0  0  0  0  0  0  0  0  0  0
   47.3350   32.0700   44.5620 C   0  0  0  0  0  0  0  0  0  0  0  0
   46.7320   32.1340   45.8110 C   0  0  0  0  0  0  0  0  0  0  0  0
   45.8700   33.1610   46.1210 C   0  0  0  0  0  0  0  0  0  0  0  0
   45.6360   34.1050   45.1560 C   0  0  0  0  0  0  0  0  0  0  0  0
   44.7730   35.1430   45.4440 C   0  0  0  0  0  0  0  0  0  0  0  0
   44.4770   36.1230   44.5400 C   0  0  0  0  0  0  0  0  0  0  0  0
   45.0910   36.0310   43.2970 C   0  0  0  0  0  0  0  0  0  0  0  0
   45.9520   34.9900   43.0210 C   0  0  0  0  0  0  0  0  0  0  0  0
   46.2470   34.0170   43.9240 C   0  0  0  0  0  0  0  0  0  0  0  0
   46.5310   34.9340   41.7760 O   0  0  0  0  0  0  0  0  0  0  0  0
   50.7569   32.4756   42.4553 H   0  0  0  0  0  0  0  0  0  0  0  0
   49.2924   32.7009   40.0296 H   0  0  0  0  0  0  0  0  0  0  0  0
   49.3568   31.1817   39.7405 H   0  0  0  0  0  0  0  0  0  0  0  0
   47.8335   31.0781   42.4900 H   0  0  0  0  0  0  0  0  0  0  0  0
   50.9686   27.3185   41.7596 H   0  0  0  0  0  0  0  0  0  0  0  0
   52.8769   27.5432   43.4346 H   0  0  0  0  0  0  0  0  0  0  0  0
   52.3747   30.4333   46.2440 H   0  0  0  0  0  0  0  0  0  0  0  0
   54.3110   30.5678   47.7980 H   0  0  0  0  0  0  0  0  0  0  0  0
   56.9908   29.3560   44.7288 H   0  0  0  0  0  0  0  0  0  0  0  0
   47.8108   33.7162   41.7248 H   0  0  0  0  0  0  0  0  0  0  0  0
   48.0174   31.2339   44.3493 H   0  0  0  0  0  0  0  0  0  0  0  0
   46.9452   31.3567   46.5596 H   0  0  0  0  0  0  0  0  0  0  0  0
   45.3867   33.2217   47.1073 H   0  0  0  0  0  0  0  0  0  0  0  0
   44.3060   35.1824   46.4392 H   0  0  0  0  0  0  0  0  0  0  0  0
   43.7869   36.9442   44.7838 H   0  0  0  0  0  0  0  0  0  0  0  0
   44.8892   36.7925   42.5293 H   0  0  0  0  0  0  0  0  0  0  0  0
   47.1529   34.1970   41.5520 H   0  0  0  0  0  0  0  0  0  0  0  0
  1  3  1  0
  1  8  1  0
  2  1  1  0
  2  3  1  0
  3 16  1  0
  4  5  2  0
  5  6  1  0
  6 10  1  0
  7  6  2  0
  8  7  1  0
  9  4  1  0
  9  8  2  0
 10 11  2  0
 11 12  1  0
 13 12  2  0
 14 13  1  0
 15 10  1  0
 15 14  2  0
 16 17  1  0
 17 26  1  0
 17 18  2  0
 18 19  1  0
 19 20  2  0
 21 22  2  0
 21 20  1  0
 23 22  1  0
 24 23  2  0
 25 24  1  0
 25 26  2  0
 26 21  1  0
 27 25  1  0
  1 28  1  1
  2 29  1  0
  2 30  1  0
  3 31  1  6
  4 32  1  0
  5 33  1  0
 11 34  1  0
 12 35  1  0
 14 36  1  0
 16 37  1  0
 18 38  1  0
 19 39  1  0
 20 40  1  0
 22 41  1  0
 23 42  1  0
 24 43  1  0
 27 44  1  0
M  ISO  8  28  13  29  13  30  13  31  13  32  14  33  14  34  14  35  14
M  ISO  8  36  14  38  14  39  14  40  14  41  14  42  14  43  14  44   3
M  END
>  <minimizedAffinity>  (1) 
-5.04021311

>  <minimizedRMSD>  (1) 
0.484165281

$$$$
