
     RDKit          3D

 22 23  0  0  0  0  0  0  0  0999 V2000
   44.5390   35.5390   44.9910 C   0  0  0  0  0  0  0  0  0  0  0  0
   45.1950   35.4530   43.7620 C   0  0  0  0  0  0  0  0  0  0  0  0
   46.1570   34.4450   43.6090 C   0  0  0  0  0  0  0  0  0  0  0  0
   46.3780   33.6240   44.6790 N   0  0  0  0  0  0  0  0  0  0  0  0
   45.7240   33.7430   45.8410 C   0  0  0  0  0  0  0  0  0  0  0  0
   44.8080   34.6990   45.9910 N   0  0  0  0  0  0  0  0  0  0  0  0
   46.0100   32.8290   46.9440 C   0  0  0  0  0  0  0  0  0  0  0  0
   45.0700   32.6140   47.9300 C   0  0  0  0  0  0  0  0  0  0  0  0
   45.3890   31.7360   48.9560 C   0  0  0  0  0  0  0  0  0  0  0  0
   46.6060   31.0850   49.0120 C   0  0  0  0  0  0  0  0  0  0  0  0
   47.5600   31.2870   48.0340 C   0  0  0  0  0  0  0  0  0  0  0  0
   47.2170   32.1630   47.0260 C   0  0  0  0  0  0  0  0  0  0  0  0
   46.8470   34.3140   42.3940 N   0  0  0  0  0  0  0  0  0  0  0  0
   43.7795   36.3209   45.1386 H   0  0  0  0  0  0  0  0  0  0  0  0
   44.9654   36.1508   42.9433 H   0  0  0  0  0  0  0  0  0  0  0  0
   44.0956   33.1238   47.9038 H   0  0  0  0  0  0  0  0  0  0  0  0
   44.6496   31.5527   49.7496 H   0  0  0  0  0  0  0  0  0  0  0  0
   46.8176   30.3981   49.8447 H   0  0  0  0  0  0  0  0  0  0  0  0
   48.5355   30.7792   48.0578 H   0  0  0  0  0  0  0  0  0  0  0  0
   47.9563   32.3440   46.2318 H   0  0  0  0  0  0  0  0  0  0  0  0
   47.5541   33.5737   42.2805 H   0  0  0  0  0  0  0  0  0  0  0  0
   46.6464   34.9582   41.6157 H   0  0  0  0  0  0  0  0  0  0  0  0
  1  6  2  0
  2  1  1  0
  3  2  2  0
  3  4  1  0
  4  5  2  0
  5  6  1  0
  5  7  1  0
  7 12  1  0
  7  8  2  0
  8  9  1  0
  9 10  2  0
 11 10  1  0
 12 11  2  0
 13  3  1  0
  1 14  1  0
  2 15  1  0
  8 16  1  0
  9 17  1  0
 10 18  1  0
 11 19  1  0
 12 20  1  0
 13 21  1  0
 13 22  1  0
M  ISO  7  14  14  15  14  16  14  17  14  18  14  19  14  20  14
M  END
>  <minimizedAffinity>  (1) 
-4.84832382

>  <minimizedRMSD>  (1) 
0.916202962

$$$$
