
     RDKit          3D

 21 22  0  0  0  0  0  0  0  0999 V2000
   44.4800   35.8290   44.7470 C   0  0  0  0  0  0  0  0  0  0  0  0
   45.1110   35.8070   43.4860 C   0  0  0  0  0  0  0  0  0  0  0  0
   46.0670   34.8130   43.2760 C   0  0  0  0  0  0  0  0  0  0  0  0
   46.3350   33.9340   44.2840 N   0  0  0  0  0  0  0  0  0  0  0  0
   45.7110   33.9940   45.4660 C   0  0  0  0  0  0  0  0  0  0  0  0
   44.7960   34.9350   45.6850 N   0  0  0  0  0  0  0  0  0  0  0  0
   46.0300   33.0330   46.5150 C   0  0  0  0  0  0  0  0  0  0  0  0
   45.2160   32.9050   47.6200 C   0  0  0  0  0  0  0  0  0  0  0  0
   45.4520   32.0150   48.6570 C   0  0  0  0  0  0  0  0  0  0  0  0
   46.5900   31.2050   48.5620 C   0  0  0  0  0  0  0  0  0  0  0  0
   47.3800   31.3600   47.4430 C   0  0  0  0  0  0  0  0  0  0  0  0
   47.1090   32.2400   46.4600 N   0  0  0  0  0  0  0  0  0  0  0  0
   46.7270   34.7540   42.0200 N   0  0  0  0  0  0  0  0  0  0  0  0
   43.7177   36.5930   44.9596 H   0  0  0  0  0  0  0  0  0  0  0  0
   44.8610   36.5395   42.7044 H   0  0  0  0  0  0  0  0  0  0  0  0
   44.3254   33.5476   47.6831 H   0  0  0  0  0  0  0  0  0  0  0  0
   44.7725   31.9481   49.5194 H   0  0  0  0  0  0  0  0  0  0  0  0
   46.8428   30.4764   49.3464 H   0  0  0  0  0  0  0  0  0  0  0  0
   48.2784   30.7324   47.3480 H   0  0  0  0  0  0  0  0  0  0  0  0
   47.4361   34.0279   41.8445 H   0  0  0  0  0  0  0  0  0  0  0  0
   46.4966   35.4373   41.2846 H   0  0  0  0  0  0  0  0  0  0  0  0
  1  6  2  0
  2  1  1  0
  3  2  2  0
  3  4  1  0
  4  5  2  0
  5  6  1  0
  5  7  1  0
  7  8  2  0
  8  9  1  0
 10  9  2  0
 11 10  1  0
 12  7  1  0
 12 11  2  0
 13  3  1  0
  1 14  1  0
  2 15  1  0
  8 16  1  0
  9 17  1  0
 10 18  1  0
 11 19  1  0
 13 20  1  0
 13 21  1  0
M  ISO  6  14  14  15  14  16  14  17  14  18  14  19  14
M  END
>  <minimizedAffinity>  (1) 
-4.77225113

>  <minimizedRMSD>  (1) 
0.468992978

$$$$
