
     RDKit          3D

 25 26  0  0  0  0  0  0  0  0999 V2000
   46.2200   31.6750   46.0070 C   0  0  0  0  0  0  0  0  0  0  0  0
   45.7340   32.9100   46.3920 C   0  0  0  0  0  0  0  0  0  0  0  0
   45.4470   33.1130   47.7230 C   0  0  0  0  0  0  0  0  0  0  0  0
   45.6180   32.1470   48.6930 C   0  0  0  0  0  0  0  0  0  0  0  0
   46.1080   30.8950   48.3160 C   0  0  0  0  0  0  0  0  0  0  0  0
   46.3820   30.7270   46.9960 C   0  0  0  0  0  0  0  0  0  0  0  0
   44.5000   35.9370   44.7220 C   0  0  0  0  0  0  0  0  0  0  0  0
   45.2620   35.9150   43.5300 C   0  0  0  0  0  0  0  0  0  0  0  0
   46.1610   34.8750   43.3420 C   0  0  0  0  0  0  0  0  0  0  0  0
   46.2530   33.9460   44.3160 N   0  0  0  0  0  0  0  0  0  0  0  0
   45.5260   33.9780   45.4410 C   0  0  0  0  0  0  0  0  0  0  0  0
   44.6620   34.9720   45.6240 N   0  0  0  0  0  0  0  0  0  0  0  0
   46.9340   34.8280   42.1630 N   0  0  0  0  0  0  0  0  0  0  0  0
   46.6070   31.3450   44.3330 S   0  0  0  0  0  0  0  0  0  0  0  0
   47.9570   30.7130   44.1720 O   0  0  0  0  0  0  0  0  0  0  0  0
   45.6130   30.3010   43.8440 O   0  0  0  0  0  0  0  0  0  0  0  0
   45.0613   34.0966   48.0290 H   0  0  0  0  0  0  0  0  0  0  0  0
   45.3728   32.3592   49.7441 H   0  0  0  0  0  0  0  0  0  0  0  0
   46.2637   30.0887   49.0479 H   0  0  0  0  0  0  0  0  0  0  0  0
   46.7687   29.7445   46.6874 H   0  0  0  0  0  0  0  0  0  0  0  0
   43.7779   36.7470   44.9021 H   0  0  0  0  0  0  0  0  0  0  0  0
   45.1446   36.7028   42.7713 H   0  0  0  0  0  0  0  0  0  0  0  0
   47.6034   34.0591   42.0164 H   0  0  0  0  0  0  0  0  0  0  0  0
   46.8290   35.5626   41.4487 H   0  0  0  0  0  0  0  0  0  0  0  0
   46.5731   32.5324   43.6504 H   0  0  0  0  0  0  0  0  0  0  0  0
  1  2  2  0
  1  6  1  0
  2  3  1  0
  3  4  2  0
  5  4  1  0
  6  5  2  0
  7 12  2  0
  8  7  1  0
  9  8  2  0
  9 10  1  0
 10 11  2  0
 11 12  1  0
 11  2  1  0
 13  9  1  0
 14  1  1  0
 15 14  2  0
 16 14  2  0
  3 17  1  0
  4 18  1  0
  5 19  1  0
  6 20  1  0
  7 21  1  0
  8 22  1  0
 13 23  1  0
 13 24  1  0
 14 25  1  0
M  ISO  7  17  14  18  14  19  14  20  14  21  14  22  14  25  11
M  END
>  <minimizedAffinity>  (1) 
-4.54068136

>  <minimizedRMSD>  (1) 
0.504765749

$$$$
