
     RDKit          3D

 19 20  0  0  0  0  0  0  0  0999 V2000
   44.4960   36.0350   44.4710 C   0  0  0  0  0  0  0  0  0  0  0  0
   45.2250   35.8580   43.2870 C   0  0  0  0  0  0  0  0  0  0  0  0
   46.1150   34.7860   43.2520 C   0  0  0  0  0  0  0  0  0  0  0  0
   46.2160   33.9920   44.3540 N   0  0  0  0  0  0  0  0  0  0  0  0
   45.4990   34.1980   45.4670 C   0  0  0  0  0  0  0  0  0  0  0  0
   44.6410   35.2190   45.5220 N   0  0  0  0  0  0  0  0  0  0  0  0
   45.7790   33.2200   46.5100 C   0  0  0  0  0  0  0  0  0  0  0  0
   46.8970   32.4260   46.3760 C   0  0  0  0  0  0  0  0  0  0  0  0
   46.9400   31.5980   47.4750 C   0  0  0  0  0  0  0  0  0  0  0  0
   45.8650   31.8940   48.2510 N   0  0  0  0  0  0  0  0  0  0  0  0
   45.1600   32.8750   47.6700 N   0  0  0  0  0  0  0  0  0  0  0  0
   46.8790   34.5550   42.0850 N   0  0  0  0  0  0  0  0  0  0  0  0
   43.7830   36.8699   44.5385 H   0  0  0  0  0  0  0  0  0  0  0  0
   45.1007   36.5325   42.4270 H   0  0  0  0  0  0  0  0  0  0  0  0
   47.6194   32.4493   45.5468 H   0  0  0  0  0  0  0  0  0  0  0  0
   47.7049   30.8361   47.6861 H   0  0  0  0  0  0  0  0  0  0  0  0
   45.6292   31.4374   49.1436 H   0  0  0  0  0  0  0  0  0  0  0  0
   47.5393   33.7653   42.0497 H   0  0  0  0  0  0  0  0  0  0  0  0
   46.7753   35.1764   41.2701 H   0  0  0  0  0  0  0  0  0  0  0  0
  1  6  2  0
  2  1  1  0
  3  2  2  0
  3  4  1  0
  4  5  2  0
  5  6  1  0
  5  7  1  0
  7 11  2  0
  8  7  1  0
  8  9  2  0
  9 10  1  0
 11 10  1  0
 12  3  1  0
  1 13  1  0
  2 14  1  0
  8 15  1  0
  9 16  1  0
 10 17  1  0
 12 18  1  0
 12 19  1  0
M  ISO  5  13  14  14  14  15  14  16  14  17   9
M  END
>  <minimizedAffinity>  (1) 
-4.26224422

>  <minimizedRMSD>  (1) 
0.61966908

$$$$
