
     RDKit          3D

 13 13  0  0  0  0  0  0  0  0999 V2000
   44.5180   35.9320   44.5680 C   0  0  0  0  0  0  0  0  0  0  0  0
   45.1770   35.9050   43.3290 C   0  0  0  0  0  0  0  0  0  0  0  0
   46.1100   34.9000   43.1020 C   0  0  0  0  0  0  0  0  0  0  0  0
   46.3280   33.9990   44.1060 N   0  0  0  0  0  0  0  0  0  0  0  0
   45.6810   34.0560   45.2770 C   0  0  0  0  0  0  0  0  0  0  0  0
   44.7860   35.0180   45.4950 N   0  0  0  0  0  0  0  0  0  0  0  0
   46.7840   34.8480   41.8710 N   0  0  0  0  0  0  0  0  0  0  0  0
   46.0840   32.8000   46.4830 S   0  0  0  0  0  0  0  0  0  0  0  0
   43.7739   36.7157   44.7734 H   0  0  0  0  0  0  0  0  0  0  0  0
   44.9608   36.6592   42.5580 H   0  0  0  0  0  0  0  0  0  0  0  0
   47.4770   34.1068   41.6942 H   0  0  0  0  0  0  0  0  0  0  0  0
   46.5854   35.5511   41.1450 H   0  0  0  0  0  0  0  0  0  0  0  0
   45.9207   33.3090   47.7444 H   0  0  0  0  0  0  0  0  0  0  0  0
  1  6  2  0
  2  1  1  0
  3  2  2  0
  3  4  1  0
  4  5  2  0
  5  6  1  0
  5  8  1  0
  7  3  1  0
  1  9  1  0
  2 10  1  0
  7 11  1  0
  7 12  1  0
  8 13  1  0
M  ISO  3   9  14  10  14  13  11
M  END
>  <minimizedAffinity>  (1) 
-3.29222012

>  <minimizedRMSD>  (1) 
0.101779394

$$$$
