
     RDKit          3D

 38 41  0  0  1  0  0  0  0  0999 V2000
   48.0110   32.9750   42.4810 N   0  0  0  0  0  0  0  0  0  0  0  0
   47.2490   33.0340   43.6560 C   0  0  0  0  0  0  0  0  0  0  0  0
   47.4490   32.0970   44.6410 C   0  0  0  0  0  0  0  0  0  0  0  0
   46.7840   32.1310   45.8560 C   0  0  0  0  0  0  0  0  0  0  0  0
   45.8750   33.1260   46.1350 C   0  0  0  0  0  0  0  0  0  0  0  0
   45.6560   34.0800   45.1610 C   0  0  0  0  0  0  0  0  0  0  0  0
   44.7520   35.0880   45.4220 C   0  0  0  0  0  0  0  0  0  0  0  0
   44.4850   36.0650   44.5080 C   0  0  0  0  0  0  0  0  0  0  0  0
   45.1590   36.0010   43.3040 C   0  0  0  0  0  0  0  0  0  0  0  0
   46.0560   34.9930   43.0580 C   0  0  0  0  0  0  0  0  0  0  0  0
   46.3320   34.0160   43.9630 C   0  0  0  0  0  0  0  0  0  0  0  0
   46.6980   34.9650   41.8390 O   0  0  0  0  0  0  0  0  0  0  0  0
   50.1840   31.7530   42.2670 C   0  0  1  0  0  0  0  0  0  0  0  0
   49.6800   31.9470   40.8660 C   0  0  0  0  0  0  0  0  0  0  0  0
   48.7320   31.8090   42.0920 C   0  0  2  0  0  0  0  0  0  0  0  0
   50.9350   28.1240   42.3620 C   0  0  0  0  0  0  0  0  0  0  0  0
   52.0310   28.0820   43.2950 C   0  0  0  0  0  0  0  0  0  0  0  0
   52.4810   29.3170   43.8610 C   0  0  0  0  0  0  0  0  0  0  0  0
   51.8750   30.4440   43.5090 N   0  0  0  0  0  0  0  0  0  0  0  0
   50.8390   30.4380   42.6210 C   0  0  0  0  0  0  0  0  0  0  0  0
   50.3580   29.2880   42.0390 N   0  0  0  0  0  0  0  0  0  0  0  0
   53.5630   29.2600   44.7800 N   0  0  0  0  0  0  0  0  0  0  0  0
   48.0514   33.8069   41.8751 H   0  0  0  0  0  0  0  0  0  0  0  0
   48.1679   31.2851   44.4570 H   0  0  0  0  0  0  0  0  0  0  0  0
   46.9851   31.3529   46.6071 H   0  0  0  0  0  0  0  0  0  0  0  0
   45.3432   33.1600   47.0973 H   0  0  0  0  0  0  0  0  0  0  0  0
   44.2330   35.1048   46.3917 H   0  0  0  0  0  0  0  0  0  0  0  0
   43.7645   36.8686   44.7206 H   0  0  0  0  0  0  0  0  0  0  0  0
   44.9746   36.7658   42.5351 H   0  0  0  0  0  0  0  0  0  0  0  0
   47.3496   34.2469   41.6391 H   0  0  0  0  0  0  0  0  0  0  0  0
   50.8861   32.3047   42.9095 H   0  0  0  0  0  0  0  0  0  0  0  0
   49.7586   31.1354   40.1277 H   0  0  0  0  0  0  0  0  0  0  0  0
   49.8351   32.6801   40.0607 H   0  0  0  0  0  0  0  0  0  0  0  0
   47.9026   31.1513   42.3914 H   0  0  0  0  0  0  0  0  0  0  0  0
   50.5683   27.1905   41.9102 H   0  0  0  0  0  0  0  0  0  0  0  0
   52.5084   27.1285   43.5648 H   0  0  0  0  0  0  0  0  0  0  0  0
   53.9186   30.1252   45.2111 H   0  0  0  0  0  0  0  0  0  0  0  0
   53.9918   28.3535   45.0151 H   0  0  0  0  0  0  0  0  0  0  0  0
  1  2  1  0
  2 11  1  0
  2  3  2  0
  3  4  1  0
  4  5  2  0
  6  7  2  0
  6  5  1  0
  8  7  1  0
  9  8  2  0
 10  9  1  0
 10 11  2  0
 11  6  1  0
 12 10  1  0
 13 20  1  0
 14 15  1  0
 14 13  1  0
 15 13  1  0
 15  1  1  0
 16 17  2  0
 17 18  1  0
 18 22  1  0
 19 18  2  0
 20 19  1  0
 21 16  1  0
 21 20  2  0
  1 23  1  0
  3 24  1  0
  4 25  1  0
  5 26  1  0
  7 27  1  0
  8 28  1  0
  9 29  1  0
 12 30  1  0
 13 31  1  1
 14 32  1  0
 14 33  1  0
 15 34  1  6
 16 35  1  0
 17 36  1  0
 22 37  1  0
 22 38  1  0
M  ISO  8  24  14  25  14  26  14  27  14  28  14  29  14  30   3  31  13
M  ISO  5  32  13  33  13  34  13  35  14  36  14
M  END
>  <minimizedAffinity>  (1) 
-4.76977396

>  <minimizedRMSD>  (1) 
0.0410239138

$$$$
