
     RDKit          3D

 40 43  0  0  0  0  0  0  0  0999 V2000
   45.9260   32.3590   46.0830 C   0  0  0  0  0  0  0  0  0  0  0  0
   45.6080   33.0150   47.2640 C   0  0  0  0  0  0  0  0  0  0  0  0
   45.8250   32.4610   48.5330 C   0  0  0  0  0  0  0  0  0  0  0  0
   46.3800   31.2050   48.6610 C   0  0  0  0  0  0  0  0  0  0  0  0
   46.7070   30.5130   47.4870 C   0  0  0  0  0  0  0  0  0  0  0  0
   47.1920   29.2450   47.6410 C   0  0  0  0  0  0  0  0  0  0  0  0
   47.4370   28.4920   46.4900 C   0  0  0  0  0  0  0  0  0  0  0  0
   47.1550   29.0900   45.2160 C   0  0  0  0  0  0  0  0  0  0  0  0
   46.6710   30.3700   45.2010 C   0  0  0  0  0  0  0  0  0  0  0  0
   46.4490   31.1360   46.2760 C   0  0  0  0  0  0  0  0  0  0  0  0
   45.2420   34.1410   42.8910 C   0  0  0  0  0  0  0  0  0  0  0  0
   46.5430   34.5470   42.5540 C   0  0  0  0  0  0  0  0  0  0  0  0
   47.5590   34.1580   43.4060 C   0  0  0  0  0  0  0  0  0  0  0  0
   47.1790   33.4380   44.4600 N   0  0  0  0  0  0  0  0  0  0  0  0
   45.9880   33.0410   44.8070 C   0  0  0  0  0  0  0  0  0  0  0  0
   45.0250   33.4180   43.9810 N   0  0  0  0  0  0  0  0  0  0  0  0
   48.9400   34.4130   43.1450 N   0  0  0  0  0  0  0  0  0  0  0  0
   44.8720   29.7610   43.8420 C   0  0  0  0  0  0  0  0  0  0  0  0
   46.1960   30.2840   43.8380 C   0  0  0  0  0  0  0  0  0  0  0  0
   46.6730   30.3730   42.5800 C   0  0  0  0  0  0  0  0  0  0  0  0
   46.0060   30.0240   41.4320 C   0  0  0  0  0  0  0  0  0  0  0  0
   44.7300   29.5250   41.4700 C   0  0  0  0  0  0  0  0  0  0  0  0
   44.1670   29.3980   42.7160 C   0  0  0  0  0  0  0  0  0  0  0  0
   44.0720   29.5290   44.9850 O   0  0  0  0  0  0  0  0  0  0  0  0
   42.8770   28.8860   42.6870 O   0  0  0  0  0  0  0  0  0  0  0  0
   45.1637   34.0193   47.2010 H   0  0  0  0  0  0  0  0  0  0  0  0
   45.5509   33.0316   49.4326 H   0  0  0  0  0  0  0  0  0  0  0  0
   46.5600   30.7613   49.6513 H   0  0  0  0  0  0  0  0  0  0  0  0
   47.3838   28.8295   48.6413 H   0  0  0  0  0  0  0  0  0  0  0  0
   47.8351   27.4688   46.5582 H   0  0  0  0  0  0  0  0  0  0  0  0
   47.3228   28.5364   44.2804 H   0  0  0  0  0  0  0  0  0  0  0  0
   44.3970   34.4246   42.2464 H   0  0  0  0  0  0  0  0  0  0  0  0
   46.7441   35.1466   41.6540 H   0  0  0  0  0  0  0  0  0  0  0  0
   49.6570   34.1004   43.8151 H   0  0  0  0  0  0  0  0  0  0  0  0
   49.2188   34.9094   42.2867 H   0  0  0  0  0  0  0  0  0  0  0  0
   47.6949   30.7627   42.4622 H   0  0  0  0  0  0  0  0  0  0  0  0
   46.5066   30.1475   40.4603 H   0  0  0  0  0  0  0  0  0  0  0  0
   44.1883   29.2426   40.5553 H   0  0  0  0  0  0  0  0  0  0  0  0
   43.1587   29.1606   44.8835 H   0  0  0  0  0  0  0  0  0  0  0  0
   42.3779   28.7535   43.5317 H   0  0  0  0  0  0  0  0  0  0  0  0
  1 10  1  0
  1  2  2  0
  2  3  1  0
  3  4  2  0
  5  6  2  0
  5  4  1  0
  7  6  1  0
  8  7  2  0
  9  8  1  0
  9 10  2  0
 10  5  1  0
 11 16  2  0
 12 11  1  0
 12 13  2  0
 13 14  1  0
 14 15  2  0
 15  1  1  0
 16 15  1  0
 17 13  1  0
 18 24  1  0
 19 18  2  0
 19  9  1  0
 20 19  1  0
 21 22  1  0
 21 20  2  0
 22 23  2  0
 23 18  1  0
 25 23  1  0
  2 26  1  0
  3 27  1  0
  4 28  1  0
  6 29  1  0
  7 30  1  0
  8 31  1  0
 11 32  1  0
 12 33  1  0
 17 34  1  0
 17 35  1  0
 20 36  1  0
 21 37  1  0
 22 38  1  0
 24 39  1  0
 25 40  1  0
M  ISO  8  26  14  27  14  28  14  29  14  30  14  31  14  32  14  33  14
M  ISO  5  36  14  37  14  38  14  39   3  40   3
M  END
>  <minimizedAffinity>  (1) 
-4.99082661

>  <minimizedRMSD>  (1) 
1.52915192

$$$$
