
     RDKit          3D

 43 46  0  0  0  0  0  0  0  0999 V2000
   45.9200   32.3310   46.0750 C   0  0  0  0  0  0  0  0  0  0  0  0
   45.6180   32.9980   47.2610 C   0  0  0  0  0  0  0  0  0  0  0  0
   45.8250   32.4340   48.5260 C   0  0  0  0  0  0  0  0  0  0  0  0
   46.3440   31.1760   48.6520 C   0  0  0  0  0  0  0  0  0  0  0  0
   46.6520   30.4750   47.4670 C   0  0  0  0  0  0  0  0  0  0  0  0
   47.1140   29.2070   47.6310 C   0  0  0  0  0  0  0  0  0  0  0  0
   47.3580   28.4610   46.4760 C   0  0  0  0  0  0  0  0  0  0  0  0
   47.1000   29.0670   45.1940 C   0  0  0  0  0  0  0  0  0  0  0  0
   46.6310   30.3580   45.2020 C   0  0  0  0  0  0  0  0  0  0  0  0
   46.4010   31.1240   46.2560 C   0  0  0  0  0  0  0  0  0  0  0  0
   44.8540   29.7580   43.8130 C   0  0  0  0  0  0  0  0  0  0  0  0
   46.2080   30.2760   43.8180 C   0  0  0  0  0  0  0  0  0  0  0  0
   46.6740   30.3760   42.5760 C   0  0  0  0  0  0  0  0  0  0  0  0
   45.9900   30.0380   41.4260 C   0  0  0  0  0  0  0  0  0  0  0  0
   44.7170   29.5490   41.4430 C   0  0  0  0  0  0  0  0  0  0  0  0
   44.1400   29.4080   42.6840 C   0  0  0  0  0  0  0  0  0  0  0  0
   44.0360   29.5230   44.9510 O   0  0  0  0  0  0  0  0  0  0  0  0
   42.8570   28.9060   42.6400 O   0  0  0  0  0  0  0  0  0  0  0  0
   42.3040   28.6130   41.3730 C   0  0  0  0  0  0  0  0  0  0  0  0
   45.2600   34.1380   42.8780 C   0  0  0  0  0  0  0  0  0  0  0  0
   46.5780   34.5350   42.5490 C   0  0  0  0  0  0  0  0  0  0  0  0
   47.5690   34.1350   43.4170 C   0  0  0  0  0  0  0  0  0  0  0  0
   47.1560   33.4260   44.4640 N   0  0  0  0  0  0  0  0  0  0  0  0
   45.9340   33.0370   44.8040 C   0  0  0  0  0  0  0  0  0  0  0  0
   45.0080   33.4170   43.9750 N   0  0  0  0  0  0  0  0  0  0  0  0
   48.9400   34.4080   43.1800 N   0  0  0  0  0  0  0  0  0  0  0  0
   45.1982   34.0130   47.2007 H   0  0  0  0  0  0  0  0  0  0  0  0
   45.5672   33.0094   49.4274 H   0  0  0  0  0  0  0  0  0  0  0  0
   46.5153   30.7264   49.6412 H   0  0  0  0  0  0  0  0  0  0  0  0
   47.2884   28.7860   48.6322 H   0  0  0  0  0  0  0  0  0  0  0  0
   47.7395   27.4315   46.5433 H   0  0  0  0  0  0  0  0  0  0  0  0
   47.2705   28.5217   44.2540 H   0  0  0  0  0  0  0  0  0  0  0  0
   47.6965   30.7629   42.4547 H   0  0  0  0  0  0  0  0  0  0  0  0
   46.4921   30.1683   40.4560 H   0  0  0  0  0  0  0  0  0  0  0  0
   44.1830   29.2830   40.5189 H   0  0  0  0  0  0  0  0  0  0  0  0
   43.1201   29.1650   44.8368 H   0  0  0  0  0  0  0  0  0  0  0  0
   41.3389   28.1016   41.5035 H   0  0  0  0  0  0  0  0  0  0  0  0
   42.1508   29.5483   40.8146 H   0  0  0  0  0  0  0  0  0  0  0  0
   42.9918   27.9610   40.8146 H   0  0  0  0  0  0  0  0  0  0  0  0
   44.4282   34.4279   42.2192 H   0  0  0  0  0  0  0  0  0  0  0  0
   46.7983   35.1298   41.6502 H   0  0  0  0  0  0  0  0  0  0  0  0
   49.6520   34.0918   43.8537 H   0  0  0  0  0  0  0  0  0  0  0  0
   49.2239   34.9225   42.3341 H   0  0  0  0  0  0  0  0  0  0  0  0
  1 10  1  0
  1  2  2  0
  2  3  1  0
  3  4  2  0
  5  6  2  0
  5  4  1  0
  7  6  1  0
  8  9  1  0
  8  7  2  0
  9 10  2  0
 10  5  1  0
 11 12  2  0
 11 17  1  0
 12  9  1  0
 13 12  1  0
 14 15  1  0
 14 13  2  0
 15 16  2  0
 16 11  1  0
 18 16  1  0
 19 18  1  0
 20 25  2  0
 21 20  1  0
 21 22  2  0
 22 23  1  0
 23 24  2  0
 24  1  1  0
 25 24  1  0
 26 22  1  0
  2 27  1  0
  3 28  1  0
  4 29  1  0
  6 30  1  0
  7 31  1  0
  8 32  1  0
 13 33  1  0
 14 34  1  0
 15 35  1  0
 17 36  1  0
 19 37  1  0
 19 38  1  0
 19 39  1  0
 20 40  1  0
 21 41  1  0
 26 42  1  0
 26 43  1  0
M  ISO  8  27  14  28  14  29  14  30  14  31  14  32  14  33  14  34  14
M  ISO  7  35  14  36   3  37   8  38   8  39   8  40  14  41  14
M  END
>  <minimizedAffinity>  (1) 
-4.77796507

>  <minimizedRMSD>  (1) 
0.0413514264

$$$$
