
     RDKit          3D

 37 39  0  0  1  0  0  0  0  0999 V2000
   46.7740   34.8200   42.1320 C   0  0  0  0  0  0  0  0  0  0  0  0
   48.0000   35.4120   41.9400 C   0  0  0  0  0  0  0  0  0  0  0  0
   48.7580   35.2690   40.7800 C   0  0  0  0  0  0  0  0  0  0  0  0
   48.2610   34.4920   39.7620 C   0  0  0  0  0  0  0  0  0  0  0  0
   47.0540   33.9200   39.9670 C   0  0  0  0  0  0  0  0  0  0  0  0
   46.3400   34.0670   41.0850 N   0  0  0  0  0  0  0  0  0  0  0  0
   44.4430   35.9500   44.8670 C   0  0  0  0  0  0  0  0  0  0  0  0
   45.1030   35.9650   43.6330 C   0  0  0  0  0  0  0  0  0  0  0  0
   45.9990   34.9670   43.3560 C   0  0  0  0  0  0  0  0  0  0  0  0
   46.1990   34.0030   44.3120 N   0  0  0  0  0  0  0  0  0  0  0  0
   45.5540   34.0050   45.4960 C   0  0  0  0  0  0  0  0  0  0  0  0
   44.6790   34.9810   45.7650 N   0  0  0  0  0  0  0  0  0  0  0  0
   46.5350   33.1360   38.9540 O   0  0  0  0  0  0  0  0  0  0  0  0
   47.8370   34.5330   37.1240 O   0  0  0  0  0  0  0  0  0  0  0  0
   47.0750   33.2540   37.3320 P   0  0  1  0  0  0  0  0  0  0  0  0
   48.0800   31.9290   37.0110 O   0  0  0  0  0  0  0  0  0  0  0  0
   45.6990   33.2410   36.3370 O   0  0  0  0  0  0  0  0  0  0  0  0
   44.5780   31.1300   36.1940 C   0  0  2  0  0  0  0  0  0  0  0  0
   45.7020   32.0110   35.6720 C   0  0  1  0  0  0  0  0  0  0  0  0
   45.3190   32.1460   34.2260 C   0  0  0  0  0  0  0  0  0  0  0  0
   44.6690   30.9770   33.8640 O   0  0  0  0  0  0  0  0  0  0  0  0
   44.2470   30.3170   34.9930 C   0  0  0  0  0  0  0  0  0  0  0  0
   43.5190   31.9660   36.5360 O   0  0  0  0  0  0  0  0  0  0  0  0
   48.4063   36.0353   42.7502 H   0  0  0  0  0  0  0  0  0  0  0  0
   49.7336   35.7676   40.6813 H   0  0  0  0  0  0  0  0  0  0  0  0
   48.8184   34.3427   38.8255 H   0  0  0  0  0  0  0  0  0  0  0  0
   43.7200   36.7443   45.1044 H   0  0  0  0  0  0  0  0  0  0  0  0
   44.9062   36.7619   42.9007 H   0  0  0  0  0  0  0  0  0  0  0  0
   45.7452   33.2119   46.2338 H   0  0  0  0  0  0  0  0  0  0  0  0
   48.3827   31.5299   37.8649 H   0  0  0  0  0  0  0  0  0  0  0  0
   44.8154   30.5140   37.0739 H   0  0  0  0  0  0  0  0  0  0  0  0
   46.7171   31.6135   35.8186 H   0  0  0  0  0  0  0  0  0  0  0  0
   44.6479   33.0073   34.0926 H   0  0  0  0  0  0  0  0  0  0  0  0
   46.2086   32.3085   33.5997 H   0  0  0  0  0  0  0  0  0  0  0  0
   43.1590   30.1628   34.9428 H   0  0  0  0  0  0  0  0  0  0  0  0
   44.7522   29.3421   35.0589 H   0  0  0  0  0  0  0  0  0  0  0  0
   43.4479   32.0221   37.5219 H   0  0  0  0  0  0  0  0  0  0  0  0
  1  9  1  0
  2  1  2  0
  3  2  1  0
  4  5  1  0
  4  3  2  0
  5  6  2  0
  6  1  1  0
  7 12  2  0
  8  7  1  0
  9  8  2  0
  9 10  1  0
 10 11  2  0
 11 12  1  0
 13  5  1  0
 15 14  2  0
 15 13  1  0
 16 15  1  0
 17 15  1  0
 18 23  1  0
 19 18  1  0
 19 17  1  0
 20 19  1  0
 21 20  1  0
 21 22  1  0
 22 18  1  0
  2 24  1  0
  3 25  1  0
  4 26  1  0
  7 27  1  0
  8 28  1  0
 11 29  1  0
 16 30  1  0
 18 31  1  1
 19 32  1  6
 20 33  1  0
 20 34  1  0
 22 35  1  0
 22 36  1  0
 23 37  1  0
M  ISO  8  24  14  25  14  26  14  27  14  28  14  29  14  30   3  31  13
M  ISO  6  32  13  33  13  34  13  35  13  36  13  37   3
M  END
>  <minimizedAffinity>  (1) 
-5.85041571

>  <minimizedRMSD>  (1) 
1.1409409

$$$$
