
     RDKit          3D

 28 29  0  0  1  0  0  0  0  0999 V2000
   46.2900   34.2510   42.0990 N   0  0  0  0  0  0  0  0  0  0  0  0
   45.4760   34.2470   40.8990 C   0  0  0  0  0  0  0  0  0  0  0  0
   46.0740   33.4230   39.7990 C   0  0  0  0  0  0  0  0  0  0  0  0
   47.4460   33.7290   39.5240 N   0  0  0  0  0  0  0  0  0  0  0  0
   48.2530   34.0700   40.6240 C   0  0  2  0  0  0  0  0  0  0  0  0
   47.6700   33.9260   41.9820 C   0  0  0  0  0  0  0  0  0  0  0  0
   44.4430   35.9280   44.9000 C   0  0  0  0  0  0  0  0  0  0  0  0
   44.9530   35.7140   43.6130 C   0  0  0  0  0  0  0  0  0  0  0  0
   45.7240   34.5720   43.3550 C   0  0  0  0  0  0  0  0  0  0  0  0
   45.9230   33.7310   44.4050 N   0  0  0  0  0  0  0  0  0  0  0  0
   45.4240   33.9470   45.6470 C   0  0  0  0  0  0  0  0  0  0  0  0
   44.6840   35.0490   45.8830 N   0  0  0  0  0  0  0  0  0  0  0  0
   49.4450   36.1490   41.4920 C   0  0  0  0  0  0  0  0  0  0  0  0
   49.6910   35.5130   42.5720 O   0  0  0  0  0  0  0  0  0  0  0  0
   48.7230   35.4380   40.5020 N   0  0  0  0  0  0  0  0  0  0  0  0
   44.4854   33.8380   41.1467 H   0  0  0  0  0  0  0  0  0  0  0  0
   45.4085   35.2842   40.5390 H   0  0  0  0  0  0  0  0  0  0  0  0
   46.0062   32.3629   40.0845 H   0  0  0  0  0  0  0  0  0  0  0  0
   45.5067   33.6516   38.8847 H   0  0  0  0  0  0  0  0  0  0  0  0
   47.8653   32.9027   39.0743 H   0  0  0  0  0  0  0  0  0  0  0  0
   49.0541   33.3185   40.5638 H   0  0  0  0  0  0  0  0  0  0  0  0
   47.7984   32.8795   42.2956 H   0  0  0  0  0  0  0  0  0  0  0  0
   48.2031   34.6504   42.6153 H   0  0  0  0  0  0  0  0  0  0  0  0
   43.8399   36.8246   45.1057 H   0  0  0  0  0  0  0  0  0  0  0  0
   44.7498   36.4376   42.8098 H   0  0  0  0  0  0  0  0  0  0  0  0
   45.6214   33.2284   46.4561 H   0  0  0  0  0  0  0  0  0  0  0  0
   49.7743   37.1874   41.3396 H   0  0  0  0  0  0  0  0  0  0  0  0
   48.5143   35.9326   39.6230 H   0  0  0  0  0  0  0  0  0  0  0  0
  1  9  1  0
  2  1  1  0
  3  2  1  0
  4  3  1  0
  4  5  1  0
  5  6  1  0
  6  1  1  0
  7 12  2  0
  8  7  1  0
  9  8  2  0
  9 10  1  0
 10 11  2  0
 11 12  1  0
 13 14  2  0
 15  5  1  0
 15 13  1  0
  2 16  1  0
  2 17  1  0
  3 18  1  0
  3 19  1  0
  4 20  1  0
  5 21  1  1
  6 22  1  0
  6 23  1  0
  7 24  1  0
  8 25  1  0
 11 26  1  0
 13 27  1  0
 15 28  1  0
M  ISO  8  16  13  17  13  18  13  19  13  20   5  21  13  22  13  23  13
M  ISO  4  24  14  25  14  26  14  27   6
M  END
>  <minimizedAffinity>  (1) 
-4.67288017

>  <minimizedRMSD>  (1) 
1.23191071

$$$$
