
     RDKit          3D

 30 31  0  0  1  0  0  0  0  0999 V2000
   46.3680   34.1920   42.0690 N   0  0  0  0  0  0  0  0  0  0  0  0
   45.5880   34.2290   40.8430 C   0  0  0  0  0  0  0  0  0  0  0  0
   46.2160   33.3740   39.7710 C   0  0  0  0  0  0  0  0  0  0  0  0
   47.6030   33.6180   39.5570 N   0  0  0  0  0  0  0  0  0  0  0  0
   48.3660   33.9760   40.6850 C   0  0  2  0  0  0  0  0  0  0  0  0
   47.7280   33.7880   42.0040 C   0  0  0  0  0  0  0  0  0  0  0  0
   44.4730   35.9440   44.7880 C   0  0  0  0  0  0  0  0  0  0  0  0
   45.0000   35.7120   43.5030 C   0  0  0  0  0  0  0  0  0  0  0  0
   45.7700   34.5550   43.3160 C   0  0  0  0  0  0  0  0  0  0  0  0
   45.9580   33.7340   44.3870 N   0  0  0  0  0  0  0  0  0  0  0  0
   45.4280   34.0000   45.6100 C   0  0  0  0  0  0  0  0  0  0  0  0
   44.6900   35.1030   45.8010 N   0  0  0  0  0  0  0  0  0  0  0  0
   48.7030   35.4680   40.5820 C   0  0  0  0  0  0  0  0  0  0  0  0
   49.3180   36.0150   41.8240 C   0  0  0  0  0  0  0  0  0  0  0  0
   44.5743   33.8562   41.0513 H   0  0  0  0  0  0  0  0  0  0  0  0
   45.5529   35.2681   40.4837 H   0  0  0  0  0  0  0  0  0  0  0  0
   46.0930   32.3190   40.0572 H   0  0  0  0  0  0  0  0  0  0  0  0
   45.7053   33.6272   38.8302 H   0  0  0  0  0  0  0  0  0  0  0  0
   48.0133   32.7593   39.1630 H   0  0  0  0  0  0  0  0  0  0  0  0
   49.2310   33.2971   40.6567 H   0  0  0  0  0  0  0  0  0  0  0  0
   47.7806   32.7197   42.2608 H   0  0  0  0  0  0  0  0  0  0  0  0
   48.2766   34.4303   42.7086 H   0  0  0  0  0  0  0  0  0  0  0  0
   43.8651   36.8442   44.9617 H   0  0  0  0  0  0  0  0  0  0  0  0
   44.8144   36.4129   42.6758 H   0  0  0  0  0  0  0  0  0  0  0  0
   45.6052   33.3077   46.4463 H   0  0  0  0  0  0  0  0  0  0  0  0
   49.4080   35.6111   39.7498 H   0  0  0  0  0  0  0  0  0  0  0  0
   47.7583   36.0073   40.4186 H   0  0  0  0  0  0  0  0  0  0  0  0
   48.8234   35.5751   42.7025 H   0  0  0  0  0  0  0  0  0  0  0  0
   50.3892   35.7658   41.8432 H   0  0  0  0  0  0  0  0  0  0  0  0
   49.1954   37.1080   41.8432 H   0  0  0  0  0  0  0  0  0  0  0  0
  1  9  1  0
  2  1  1  0
  3  2  1  0
  4  3  1  0
  4  5  1  0
  5  6  1  0
  6  1  1  0
  7 12  2  0
  8  7  1  0
  9  8  2  0
  9 10  1  0
 10 11  2  0
 11 12  1  0
 13  5  1  0
 13 14  1  0
  2 15  1  0
  2 16  1  0
  3 17  1  0
  3 18  1  0
  4 19  1  0
  5 20  1  1
  6 21  1  0
  6 22  1  0
  7 23  1  0
  8 24  1  0
 11 25  1  0
 13 26  1  0
 13 27  1  0
 14 28  1  0
 14 29  1  0
 14 30  1  0
M  ISO  8  15  13  16  13  17  13  18  13  19   5  20  13  21  13  22  13
M  ISO  8  23  14  24  14  25  14  26   8  27   8  28   8  29   8  30   8
M  END
>  <minimizedAffinity>  (1) 
-4.63142014

>  <minimizedRMSD>  (1) 
1.16459131

$$$$
