
     RDKit          3D

 26 27  0  0  1  0  0  0  0  0999 V2000
   46.7840   34.5420   42.3210 N   0  0  0  0  0  0  0  0  0  0  0  0
   46.1130   34.3780   41.0410 C   0  0  0  0  0  0  0  0  0  0  0  0
   46.9790   33.6750   40.0360 C   0  0  0  0  0  0  0  0  0  0  0  0
   48.2920   34.2040   39.9130 N   0  0  0  0  0  0  0  0  0  0  0  0
   48.9090   34.6620   41.1010 C   0  0  2  0  0  0  0  0  0  0  0  0
   48.1980   34.4850   42.3710 C   0  0  0  0  0  0  0  0  0  0  0  0
   44.4360   35.9420   44.8830 C   0  0  0  0  0  0  0  0  0  0  0  0
   45.1300   35.8420   43.6590 C   0  0  0  0  0  0  0  0  0  0  0  0
   46.0220   34.7570   43.5060 C   0  0  0  0  0  0  0  0  0  0  0  0
   46.1490   33.8880   44.5420 N   0  0  0  0  0  0  0  0  0  0  0  0
   45.4640   34.0160   45.7050 C   0  0  0  0  0  0  0  0  0  0  0  0
   44.6050   35.0470   45.8730 N   0  0  0  0  0  0  0  0  0  0  0  0
   49.2290   36.0770   40.9330 N   0  0  0  0  0  0  0  0  0  0  0  0
   45.1967   33.7888   41.1936 H   0  0  0  0  0  0  0  0  0  0  0  0
   45.8825   35.3793   40.6483 H   0  0  0  0  0  0  0  0  0  0  0  0
   47.0611   32.6190   40.3330 H   0  0  0  0  0  0  0  0  0  0  0  0
   46.4950   33.8120   39.0577 H   0  0  0  0  0  0  0  0  0  0  0  0
   48.8898   33.4650   39.5163 H   0  0  0  0  0  0  0  0  0  0  0  0
   49.7857   34.0069   41.2116 H   0  0  0  0  0  0  0  0  0  0  0  0
   48.5394   35.2741   43.0571 H   0  0  0  0  0  0  0  0  0  0  0  0
   48.4350   33.4608   42.6949 H   0  0  0  0  0  0  0  0  0  0  0  0
   43.7356   36.7769   45.0325 H   0  0  0  0  0  0  0  0  0  0  0  0
   44.9827   36.5791   42.8559 H   0  0  0  0  0  0  0  0  0  0  0  0
   45.6068   33.2817   46.5115 H   0  0  0  0  0  0  0  0  0  0  0  0
   49.3289   36.5186   41.8582 H   0  0  0  0  0  0  0  0  0  0  0  0
   50.1122   36.1697   40.4112 H   0  0  0  0  0  0  0  0  0  0  0  0
  1  6  1  0
  1  9  1  0
  2  1  1  0
  3  2  1  0
  4  3  1  0
  4  5  1  0
  5  6  1  0
  7 12  2  0
  8  7  1  0
  9  8  2  0
  9 10  1  0
 10 11  2  0
 11 12  1  0
 13  5  1  0
  2 14  1  0
  2 15  1  0
  3 16  1  0
  3 17  1  0
  4 18  1  0
  5 19  1  1
  6 20  1  0
  6 21  1  0
  7 22  1  0
  8 23  1  0
 11 24  1  0
 13 25  1  0
 13 26  1  0
M  ISO  8  14  13  15  13  16  13  17  13  18   5  19  13  20  13  21  13
M  ISO  5  22  14  23  14  24  14  25   5  26   5
M  END
>  <minimizedAffinity>  (1) 
-4.57617855

>  <minimizedRMSD>  (1) 
0.589093089

$$$$
