
     RDKit          3D

 25 26  0  0  1  0  0  0  0  0999 V2000
   47.1520   34.2580   42.5270 N   0  0  0  0  0  0  0  0  0  0  0  0
   46.7600   34.3940   41.1440 C   0  0  0  0  0  0  0  0  0  0  0  0
   47.5820   33.5520   40.2190 C   0  0  0  0  0  0  0  0  0  0  0  0
   48.9920   33.7200   40.4070 N   0  0  0  0  0  0  0  0  0  0  0  0
   49.4490   33.8880   41.7380 C   0  0  1  0  0  0  0  0  0  0  0  0
   48.4650   33.7780   42.8240 C   0  0  0  0  0  0  0  0  0  0  0  0
   44.4980   35.9030   44.6140 C   0  0  0  0  0  0  0  0  0  0  0  0
   45.3490   35.6620   43.5080 C   0  0  0  0  0  0  0  0  0  0  0  0
   46.2530   34.5940   43.5720 C   0  0  0  0  0  0  0  0  0  0  0  0
   46.2510   33.8450   44.7130 N   0  0  0  0  0  0  0  0  0  0  0  0
   45.4200   34.1010   45.7600 C   0  0  0  0  0  0  0  0  0  0  0  0
   44.5530   35.1290   45.6960 N   0  0  0  0  0  0  0  0  0  0  0  0
   50.8110   32.7240   42.1050 S   0  0  0  0  0  0  0  0  0  0  0  0
   45.7059   34.0949   41.0471 H   0  0  0  0  0  0  0  0  0  0  0  0
   46.9157   35.4450   40.8591 H   0  0  0  0  0  0  0  0  0  0  0  0
   47.3324   33.8247   39.1830 H   0  0  0  0  0  0  0  0  0  0  0  0
   47.3459   32.5001   40.4373 H   0  0  0  0  0  0  0  0  0  0  0  0
   49.4582   32.8864   40.0215 H   0  0  0  0  0  0  0  0  0  0  0  0
   49.7631   34.9422   41.7373 H   0  0  0  0  0  0  0  0  0  0  0  0
   48.8463   34.3489   43.6835 H   0  0  0  0  0  0  0  0  0  0  0  0
   48.3521   32.7007   43.0157 H   0  0  0  0  0  0  0  0  0  0  0  0
   43.7837   36.7388   44.5788 H   0  0  0  0  0  0  0  0  0  0  0  0
   45.3009   36.3021   42.6147 H   0  0  0  0  0  0  0  0  0  0  0  0
   45.4567   33.4678   46.6587 H   0  0  0  0  0  0  0  0  0  0  0  0
   50.9540   32.6017   43.4620 H   0  0  0  0  0  0  0  0  0  0  0  0
  1  6  1  0
  1  9  1  0
  2  1  1  0
  3  4  1  0
  3  2  1  0
  4  5  1  0
  5 13  1  0
  5  6  1  0
  7 12  2  0
  8  9  2  0
  8  7  1  0
  9 10  1  0
 10 11  2  0
 12 11  1  0
  2 14  1  0
  2 15  1  0
  3 16  1  0
  3 17  1  0
  4 18  1  0
  5 19  1  6
  6 20  1  0
  6 21  1  0
  7 22  1  0
  8 23  1  0
 11 24  1  0
 13 25  1  0
M  ISO  8  14  13  15  13  16  13  17  13  18   5  19  13  20  13  21  13
M  ISO  4  22  14  23  14  24  14  25  11
M  END
>  <minimizedAffinity>  (1) 
-4.3803091

>  <minimizedRMSD>  (1) 
1.24805093

$$$$
