
     RDKit          3D

 21 22  0  0  0  0  0  0  0  0999 V2000
   46.6930   34.2990   41.6450 S   0  0  0  0  0  0  0  0  0  0  0  0
   44.5300   36.1450   44.5510 C   0  0  0  0  0  0  0  0  0  0  0  0
   45.1500   35.8830   43.2950 C   0  0  0  0  0  0  0  0  0  0  0  0
   45.8920   34.6840   43.1950 C   0  0  0  0  0  0  0  0  0  0  0  0
   45.9690   33.8670   44.2770 N   0  0  0  0  0  0  0  0  0  0  0  0
   45.3640   34.1560   45.4510 C   0  0  0  0  0  0  0  0  0  0  0  0
   44.6470   35.2960   45.5780 N   0  0  0  0  0  0  0  0  0  0  0  0
   49.3140   36.1140   41.8350 Cl  0  0  0  0  0  0  0  0  0  0  0  0
   49.4370   34.3580   42.0230 C   0  0  0  0  0  0  0  0  0  0  0  0
   48.2800   33.5790   41.9370 C   0  0  0  0  0  0  0  0  0  0  0  0
   48.4760   32.2120   42.0980 C   0  0  0  0  0  0  0  0  0  0  0  0
   49.6840   31.5860   42.3290 C   0  0  0  0  0  0  0  0  0  0  0  0
   50.7980   32.3970   42.4060 C   0  0  0  0  0  0  0  0  0  0  0  0
   50.6770   33.7640   42.2560 C   0  0  0  0  0  0  0  0  0  0  0  0
   43.9421   37.0659   44.6788 H   0  0  0  0  0  0  0  0  0  0  0  0
   45.0561   36.5777   42.4473 H   0  0  0  0  0  0  0  0  0  0  0  0
   45.4547   33.4649   46.3020 H   0  0  0  0  0  0  0  0  0  0  0  0
   47.5853   31.5696   42.0354 H   0  0  0  0  0  0  0  0  0  0  0  0
   49.7554   30.4946   42.4460 H   0  0  0  0  0  0  0  0  0  0  0  0
   51.7874   31.9519   42.5878 H   0  0  0  0  0  0  0  0  0  0  0  0
   51.5749   34.3961   42.3214 H   0  0  0  0  0  0  0  0  0  0  0  0
  1 10  1  0
  1  4  1  0
  2  7  2  0
  3  2  1  0
  4  3  2  0
  4  5  1  0
  5  6  2  0
  6  7  1  0
  8  9  1  0
  9 14  2  0
 10  9  1  0
 10 11  2  0
 11 12  1  0
 12 13  2  0
 14 13  1  0
  2 15  1  0
  3 16  1  0
  6 17  1  0
 11 18  1  0
 12 19  1  0
 13 20  1  0
 14 21  1  0
M  ISO  7  15  14  16  14  17  14  18  14  19  14  20  14  21  14
M  END
>  <minimizedAffinity>  (1) 
-4.71038246

>  <minimizedRMSD>  (1) 
1.61024284

$$$$
