
     RDKit          3D

 44 46  0  0  1  0  0  0  0  0999 V2000
   44.8490   34.7070   45.3060 C   0  0  0  0  0  0  0  0  0  0  0  0
   45.6150   34.6140   44.1440 C   0  0  0  0  0  0  0  0  0  0  0  0
   46.7410   33.7790   44.1190 C   0  0  0  0  0  0  0  0  0  0  0  0
   47.0040   33.1030   45.2700 N   0  0  0  0  0  0  0  0  0  0  0  0
   46.2540   33.2060   46.3760 C   0  0  0  0  0  0  0  0  0  0  0  0
   45.1660   34.0170   46.3950 N   0  0  0  0  0  0  0  0  0  0  0  0
   47.5830   33.6120   42.9990 N   0  0  0  0  0  0  0  0  0  0  0  0
   47.1880   32.7350   41.9000 C   0  0  0  0  0  0  0  0  0  0  0  0
   48.3550   32.2740   41.0940 C   0  0  0  0  0  0  0  0  0  0  0  0
   49.2290   33.3140   40.6740 N   0  0  0  0  0  0  0  0  0  0  0  0
   49.4160   34.3990   41.5620 C   0  0  2  0  0  0  0  0  0  0  0  0
   48.8320   34.2930   42.9150 C   0  0  0  0  0  0  0  0  0  0  0  0
   48.8490   35.6600   40.9130 C   0  0  0  0  0  0  0  0  0  0  0  0
   49.5700   36.7720   41.3400 F   0  0  0  0  0  0  0  0  0  0  0  0
   47.5800   35.8140   41.4260 F   0  0  0  0  0  0  0  0  0  0  0  0
   48.8780   35.6290   39.5540 F   0  0  0  0  0  0  0  0  0  0  0  0
   46.8720   31.0060   47.1590 C   0  0  1  0  0  0  0  0  0  0  0  0
   46.6310   32.4200   47.5840 C   0  0  2  0  0  0  0  0  0  0  0  0
   45.7240   32.5840   48.6060 O   0  0  0  0  0  0  0  0  0  0  0  0
   44.9600   31.4710   48.8650 C   0  0  0  0  0  0  0  0  0  0  0  0
   45.7370   30.2520   49.2590 C   0  0  2  0  0  0  0  0  0  0  0  0
   46.8760   30.0340   48.3100 C   0  0  1  0  0  0  0  0  0  0  0  0
   46.0000   30.6470   46.1360 O   0  0  0  0  0  0  0  0  0  0  0  0
   44.8430   29.1690   49.1810 O   0  0  0  0  0  0  0  0  0  0  0  0
   46.8000   28.7520   47.7660 O   0  0  0  0  0  0  0  0  0  0  0  0
   43.9666   35.3637   45.3203 H   0  0  0  0  0  0  0  0  0  0  0  0
   45.3369   35.1932   43.2512 H   0  0  0  0  0  0  0  0  0  0  0  0
   46.6764   31.8548   42.3166 H   0  0  0  0  0  0  0  0  0  0  0  0
   46.5257   33.3081   41.2345 H   0  0  0  0  0  0  0  0  0  0  0  0
   48.9338   31.5636   41.7025 H   0  0  0  0  0  0  0  0  0  0  0  0
   47.9444   31.8217   40.1792 H   0  0  0  0  0  0  0  0  0  0  0  0
   50.1526   32.8919   40.5016 H   0  0  0  0  0  0  0  0  0  0  0  0
   50.5033   34.4150   41.7277 H   0  0  0  0  0  0  0  0  0  0  0  0
   49.5516   33.7584   43.5524 H   0  0  0  0  0  0  0  0  0  0  0  0
   48.6317   35.3259   43.2361 H   0  0  0  0  0  0  0  0  0  0  0  0
   47.8926   30.9515   46.7524 H   0  0  0  0  0  0  0  0  0  0  0  0
   47.5681   32.7923   48.0237 H   0  0  0  0  0  0  0  0  0  0  0  0
   44.2674   31.7147   49.6841 H   0  0  0  0  0  0  0  0  0  0  0  0
   44.4489   31.2209   47.9236 H   0  0  0  0  0  0  0  0  0  0  0  0
   46.1558   30.3603   50.2704 H   0  0  0  0  0  0  0  0  0  0  0  0
   47.7956   30.1786   48.8960 H   0  0  0  0  0  0  0  0  0  0  0  0
   45.1586   30.3006   46.5260 H   0  0  0  0  0  0  0  0  0  0  0  0
   44.6003   28.8750   50.0946 H   0  0  0  0  0  0  0  0  0  0  0  0
   46.7605   28.0853   48.4967 H   0  0  0  0  0  0  0  0  0  0  0  0
  1  6  2  0
  2  1  1  0
  3  2  2  0
  3  4  1  0
  4  5  2  0
  5  6  1  0
  7  3  1  0
  8  7  1  0
  9  8  1  0
 10  9  1  0
 10 11  1  0
 11 12  1  0
 12  7  1  0
 13 14  1  0
 13 15  1  0
 13 11  1  0
 16 13  1  0
 17 23  1  0
 17 18  1  0
 17 22  1  0
 18  5  1  0
 18 19  1  0
 19 20  1  0
 20 21  1  0
 21 24  1  0
 22 25  1  0
 22 21  1  0
  1 26  1  0
  2 27  1  0
  8 28  1  0
  8 29  1  0
  9 30  1  0
  9 31  1  0
 10 32  1  0
 11 33  1  1
 12 34  1  0
 12 35  1  0
 17 36  1  6
 18 37  1  1
 20 38  1  0
 20 39  1  0
 21 40  1  1
 22 41  1  1
 23 42  1  0
 24 43  1  0
 25 44  1  0
M  ISO  8  26  14  27  14  28  13  29  13  30  13  31  13  32   5  33  13
M  ISO  8  34  13  35  13  36  13  37  13  38  13  39  13  40  13  41  13
M  ISO  3  42   3  43   3  44   3
M  END
>  <minimizedAffinity>  (1) 
-6.70413923

>  <minimizedRMSD>  (1) 
0.797680676

$$$$
