
     RDKit          3D

 43 45  0  0  1  0  0  0  0  0999 V2000
   47.7170   33.4770   43.0890 N   0  0  0  0  0  0  0  0  0  0  0  0
   47.3910   32.6180   41.9650 C   0  0  0  0  0  0  0  0  0  0  0  0
   48.5950   32.2760   41.1440 C   0  0  0  0  0  0  0  0  0  0  0  0
   49.3920   33.3790   40.7640 N   0  0  0  0  0  0  0  0  0  0  0  0
   49.5020   34.4390   41.6950 C   0  0  2  0  0  0  0  0  0  0  0  0
   48.9170   34.2390   43.0430 C   0  0  0  0  0  0  0  0  0  0  0  0
   45.0970   34.5060   45.5550 C   0  0  0  0  0  0  0  0  0  0  0  0
   45.8880   34.5360   44.4030 C   0  0  0  0  0  0  0  0  0  0  0  0
   46.8550   33.5540   44.2120 C   0  0  0  0  0  0  0  0  0  0  0  0
   46.9670   32.6010   45.1900 N   0  0  0  0  0  0  0  0  0  0  0  0
   46.1840   32.6060   46.2900 C   0  0  0  0  0  0  0  0  0  0  0  0
   45.2510   33.5480   46.4790 N   0  0  0  0  0  0  0  0  0  0  0  0
   46.3680   31.5350   47.3080 C   0  0  0  0  0  0  0  0  0  0  0  0
   46.2470   32.0230   48.7150 C   0  0  0  0  0  0  0  0  0  0  0  0
   45.0100   31.4230   49.3800 C   0  0  0  0  0  0  0  0  0  0  0  0
   45.1140   29.9100   49.3830 C   0  0  0  0  0  0  0  0  0  0  0  0
   45.3950   29.3380   48.0160 C   0  0  0  0  0  0  0  0  0  0  0  0
   45.3790   30.4370   46.9810 C   0  0  0  0  0  0  0  0  0  0  0  0
   48.8530   35.6850   41.0930 C   0  0  0  0  0  0  0  0  0  0  0  0
   49.5800   36.8140   41.4560 F   0  0  0  0  0  0  0  0  0  0  0  0
   47.6320   35.8180   41.7170 F   0  0  0  0  0  0  0  0  0  0  0  0
   48.7770   35.6390   39.7400 F   0  0  0  0  0  0  0  0  0  0  0  0
   46.9479   31.6869   42.3481 H   0  0  0  0  0  0  0  0  0  0  0  0
   46.6863   33.1619   41.3188 H   0  0  0  0  0  0  0  0  0  0  0  0
   49.2223   31.5872   41.7289 H   0  0  0  0  0  0  0  0  0  0  0  0
   48.2152   31.8353   40.2105 H   0  0  0  0  0  0  0  0  0  0  0  0
   50.3422   33.0274   40.5788 H   0  0  0  0  0  0  0  0  0  0  0  0
   50.5852   34.5220   41.8675 H   0  0  0  0  0  0  0  0  0  0  0  0
   49.6666   33.7264   43.6638 H   0  0  0  0  0  0  0  0  0  0  0  0
   48.6483   35.2425   43.4045 H   0  0  0  0  0  0  0  0  0  0  0  0
   44.3337   35.2835   45.7059 H   0  0  0  0  0  0  0  0  0  0  0  0
   45.7472   35.3291   43.6539 H   0  0  0  0  0  0  0  0  0  0  0  0
   47.3974   31.1506   47.2577 H   0  0  0  0  0  0  0  0  0  0  0  0
   47.1428   31.7262   49.2803 H   0  0  0  0  0  0  0  0  0  0  0  0
   46.1525   33.1189   48.7066 H   0  0  0  0  0  0  0  0  0  0  0  0
   44.9391   31.7866   50.4157 H   0  0  0  0  0  0  0  0  0  0  0  0
   44.1128   31.7252   48.8200 H   0  0  0  0  0  0  0  0  0  0  0  0
   45.9288   29.6156   50.0609 H   0  0  0  0  0  0  0  0  0  0  0  0
   44.1428   29.5131   49.7135 H   0  0  0  0  0  0  0  0  0  0  0  0
   46.3837   28.8558   48.0195 H   0  0  0  0  0  0  0  0  0  0  0  0
   44.6191   28.5986   47.7684 H   0  0  0  0  0  0  0  0  0  0  0  0
   44.3687   30.8698   46.9376 H   0  0  0  0  0  0  0  0  0  0  0  0
   45.6645   29.9982   46.0136 H   0  0  0  0  0  0  0  0  0  0  0  0
  1  9  1  0
  2  1  1  0
  3  2  1  0
  4  3  1  0
  4  5  1  0
  5  6  1  0
  6  1  1  0
  7 12  2  0
  8  7  1  0
  9  8  2  0
  9 10  1  0
 10 11  2  0
 11 12  1  0
 11 13  1  0
 13 14  1  0
 14 15  1  0
 15 16  1  0
 17 16  1  0
 18 13  1  0
 18 17  1  0
 19 20  1  0
 19  5  1  0
 19 21  1  0
 22 19  1  0
  2 23  1  0
  2 24  1  0
  3 25  1  0
  3 26  1  0
  4 27  1  0
  5 28  1  1
  6 29  1  0
  6 30  1  0
  7 31  1  0
  8 32  1  0
 13 33  1  0
 14 34  1  0
 14 35  1  0
 15 36  1  0
 15 37  1  0
 16 38  1  0
 16 39  1  0
 17 40  1  0
 17 41  1  0
 18 42  1  0
 18 43  1  0
M  ISO  8  23  13  24  13  25  13  26  13  27   5  28  13  29  13  30  13
M  ISO  8  31  14  32  14  33  13  34  13  35  13  36  13  37  13  38  13
M  ISO  5  39  13  40  13  41  13  42  13  43  13
M  END
>  <minimizedAffinity>  (1) 
-6.43706799

>  <minimizedRMSD>  (1) 
0.793489873

$$$$
