
     RDKit          3D

 37 39  0  0  1  0  0  0  0  0999 V2000
   47.3290   33.7420   42.9680 N   0  0  0  0  0  0  0  0  0  0  0  0
   46.8860   32.9030   41.8530 C   0  0  0  0  0  0  0  0  0  0  0  0
   48.0480   32.3450   41.0830 C   0  0  0  0  0  0  0  0  0  0  0  0
   49.0070   33.2950   40.6940 N   0  0  0  0  0  0  0  0  0  0  0  0
   49.2660   34.3650   41.5950 C   0  0  2  0  0  0  0  0  0  0  0  0
   48.6380   34.3130   42.9360 C   0  0  0  0  0  0  0  0  0  0  0  0
   44.7060   35.1190   45.2560 C   0  0  0  0  0  0  0  0  0  0  0  0
   45.4980   34.9850   44.1100 C   0  0  0  0  0  0  0  0  0  0  0  0
   46.4640   33.9830   44.0700 C   0  0  0  0  0  0  0  0  0  0  0  0
   46.5640   33.1970   45.1730 N   0  0  0  0  0  0  0  0  0  0  0  0
   45.7930   33.3440   46.2650 C   0  0  0  0  0  0  0  0  0  0  0  0
   44.8630   34.3070   46.3060 N   0  0  0  0  0  0  0  0  0  0  0  0
   45.9740   32.4510   47.4060 C   0  0  0  0  0  0  0  0  0  0  0  0
   44.8780   32.0400   48.1370 C   0  0  0  0  0  0  0  0  0  0  0  0
   45.0810   31.1950   49.2100 C   0  0  0  0  0  0  0  0  0  0  0  0
   46.3580   30.7530   49.5670 C   0  0  0  0  0  0  0  0  0  0  0  0
   47.4470   31.1850   48.8110 C   0  0  0  0  0  0  0  0  0  0  0  0
   47.2620   32.0330   47.7290 C   0  0  0  0  0  0  0  0  0  0  0  0
   48.8430   35.6650   40.9510 C   0  0  0  0  0  0  0  0  0  0  0  0
   49.6630   36.7020   41.3530 F   0  0  0  0  0  0  0  0  0  0  0  0
   47.5800   35.9600   41.4520 F   0  0  0  0  0  0  0  0  0  0  0  0
   48.8500   35.6130   39.5770 F   0  0  0  0  0  0  0  0  0  0  0  0
   46.2877   32.0695   42.2496 H   0  0  0  0  0  0  0  0  0  0  0  0
   46.2894   33.5261   41.1705 H   0  0  0  0  0  0  0  0  0  0  0  0
   48.5466   31.5933   41.7126 H   0  0  0  0  0  0  0  0  0  0  0  0
   47.6322   31.9263   40.1547 H   0  0  0  0  0  0  0  0  0  0  0  0
   49.8949   32.7951   40.5435 H   0  0  0  0  0  0  0  0  0  0  0  0
   50.3461   34.2760   41.7833 H   0  0  0  0  0  0  0  0  0  0  0  0
   49.2868   33.7160   43.5937 H   0  0  0  0  0  0  0  0  0  0  0  0
   48.5260   35.3571   43.2636 H   0  0  0  0  0  0  0  0  0  0  0  0
   43.9399   35.9074   45.2933 H   0  0  0  0  0  0  0  0  0  0  0  0
   45.3594   35.6612   43.2535 H   0  0  0  0  0  0  0  0  0  0  0  0
   43.8656   32.3779   47.8709 H   0  0  0  0  0  0  0  0  0  0  0  0
   44.2146   30.8608   49.7996 H   0  0  0  0  0  0  0  0  0  0  0  0
   46.5006   30.0796   50.4250 H   0  0  0  0  0  0  0  0  0  0  0  0
   48.4612   30.8506   49.0748 H   0  0  0  0  0  0  0  0  0  0  0  0
   48.1227   32.3711   47.1333 H   0  0  0  0  0  0  0  0  0  0  0  0
  1  9  1  0
  2  1  1  0
  3  2  1  0
  4  3  1  0
  4  5  1  0
  5  6  1  0
  6  1  1  0
  7 12  2  0
  8  7  1  0
  9  8  2  0
  9 10  1  0
 10 11  2  0
 11 12  1  0
 11 13  1  0
 13 18  1  0
 13 14  2  0
 14 15  1  0
 15 16  2  0
 17 16  1  0
 18 17  2  0
 19 20  1  0
 19 21  1  0
 19  5  1  0
 22 19  1  0
  2 23  1  0
  2 24  1  0
  3 25  1  0
  3 26  1  0
  4 27  1  0
  5 28  1  1
  6 29  1  0
  6 30  1  0
  7 31  1  0
  8 32  1  0
 14 33  1  0
 15 34  1  0
 16 35  1  0
 17 36  1  0
 18 37  1  0
M  ISO  8  23  13  24  13  25  13  26  13  27   5  28  13  29  13  30  13
M  ISO  7  31  14  32  14  33  14  34  14  35  14  36  14  37  14
M  END
>  <minimizedAffinity>  (1) 
-6.41505957

>  <minimizedRMSD>  (1) 
1.10749936

$$$$
