
     RDKit          3D

 42 44  0  0  1  0  0  0  0  0999 V2000
   47.4640   33.6420   43.0340 N   0  0  0  0  0  0  0  0  0  0  0  0
   47.0790   32.8050   41.8940 C   0  0  0  0  0  0  0  0  0  0  0  0
   48.2810   32.3310   41.1240 C   0  0  0  0  0  0  0  0  0  0  0  0
   49.1740   33.3590   40.7500 N   0  0  0  0  0  0  0  0  0  0  0  0
   49.3560   34.4210   41.6740 C   0  0  2  0  0  0  0  0  0  0  0  0
   48.7320   34.2900   43.0080 C   0  0  0  0  0  0  0  0  0  0  0  0
   44.9020   34.9370   45.4300 C   0  0  0  0  0  0  0  0  0  0  0  0
   45.7250   34.8900   44.2960 C   0  0  0  0  0  0  0  0  0  0  0  0
   46.5870   33.7970   44.1360 C   0  0  0  0  0  0  0  0  0  0  0  0
   46.5630   32.8530   45.1000 N   0  0  0  0  0  0  0  0  0  0  0  0
   45.7640   32.9170   46.1810 C   0  0  0  0  0  0  0  0  0  0  0  0
   44.9270   33.9690   46.3460 N   0  0  0  0  0  0  0  0  0  0  0  0
   45.7630   31.9100   47.1740 N   0  0  0  0  0  0  0  0  0  0  0  0
   45.4420   30.5430   46.9050 C   0  0  0  0  0  0  0  0  0  0  0  0
   45.9130   29.6340   48.0100 C   0  0  0  0  0  0  0  0  0  0  0  0
   45.4810   30.0890   49.3720 C   0  0  0  0  0  0  0  0  0  0  0  0
   45.1130   31.5440   49.4260 C   0  0  0  0  0  0  0  0  0  0  0  0
   46.1120   32.2960   48.5480 C   0  0  0  0  0  0  0  0  0  0  0  0
   48.8550   35.7070   41.0510 C   0  0  0  0  0  0  0  0  0  0  0  0
   49.6480   36.7770   41.4370 F   0  0  0  0  0  0  0  0  0  0  0  0
   47.6170   35.9460   41.6240 F   0  0  0  0  0  0  0  0  0  0  0  0
   48.8160   35.6570   39.6810 F   0  0  0  0  0  0  0  0  0  0  0  0
   46.5247   31.9301   42.2646 H   0  0  0  0  0  0  0  0  0  0  0  0
   46.4544   33.4089   41.2193 H   0  0  0  0  0  0  0  0  0  0  0  0
   48.8281   31.6099   41.7490 H   0  0  0  0  0  0  0  0  0  0  0  0
   47.9027   31.8875   40.1911 H   0  0  0  0  0  0  0  0  0  0  0  0
   50.0948   32.9271   40.5875 H   0  0  0  0  0  0  0  0  0  0  0  0
   50.4382   34.4057   41.8707 H   0  0  0  0  0  0  0  0  0  0  0  0
   49.4185   33.7159   43.6477 H   0  0  0  0  0  0  0  0  0  0  0  0
   48.5518   35.3172   43.3578 H   0  0  0  0  0  0  0  0  0  0  0  0
   44.2215   35.7904   45.5667 H   0  0  0  0  0  0  0  0  0  0  0  0
   45.6946   35.6950   43.5469 H   0  0  0  0  0  0  0  0  0  0  0  0
   44.3510   30.4459   46.8038 H   0  0  0  0  0  0  0  0  0  0  0  0
   45.9511   30.2469   45.9759 H   0  0  0  0  0  0  0  0  0  0  0  0
   45.5065   28.6274   47.8322 H   0  0  0  0  0  0  0  0  0  0  0  0
   47.0129   29.6433   47.9952 H   0  0  0  0  0  0  0  0  0  0  0  0
   44.6056   29.4964   49.6762 H   0  0  0  0  0  0  0  0  0  0  0  0
   46.3361   29.9450   50.0488 H   0  0  0  0  0  0  0  0  0  0  0  0
   44.0918   31.6888   49.0438 H   0  0  0  0  0  0  0  0  0  0  0  0
   45.1449   31.9165   50.4605 H   0  0  0  0  0  0  0  0  0  0  0  0
   47.1425   31.9938   48.7862 H   0  0  0  0  0  0  0  0  0  0  0  0
   46.0640   33.3844   48.7002 H   0  0  0  0  0  0  0  0  0  0  0  0
  1  9  1  0
  2  1  1  0
  3  2  1  0
  4  3  1  0
  4  5  1  0
  5  6  1  0
  6  1  1  0
  7 12  2  0
  8  7  1  0
  9  8  2  0
  9 10  1  0
 10 11  2  0
 11 12  1  0
 11 13  1  0
 13 18  1  0
 14 13  1  0
 14 15  1  0
 15 16  1  0
 16 17  1  0
 18 17  1  0
 19 20  1  0
 19 21  1  0
 19  5  1  0
 22 19  1  0
  2 23  1  0
  2 24  1  0
  3 25  1  0
  3 26  1  0
  4 27  1  0
  5 28  1  1
  6 29  1  0
  6 30  1  0
  7 31  1  0
  8 32  1  0
 14 33  1  0
 14 34  1  0
 15 35  1  0
 15 36  1  0
 16 37  1  0
 16 38  1  0
 17 39  1  0
 17 40  1  0
 18 41  1  0
 18 42  1  0
M  ISO  8  23  13  24  13  25  13  26  13  27   5  28  13  29  13  30  13
M  ISO  8  31  14  32  14  33  13  34  13  35  13  36  13  37  13  38  13
M  ISO  4  39  13  40  13  41  13  42  13
M  END
>  <minimizedAffinity>  (1) 
-6.29503584

>  <minimizedRMSD>  (1) 
0.76133424

$$$$
