
     RDKit          3D

 33 34  0  0  1  0  0  0  0  0999 V2000
   47.6250   33.4610   43.2200 N   0  0  0  0  0  0  0  0  0  0  0  0
   47.2500   32.5760   42.1230 C   0  0  0  0  0  0  0  0  0  0  0  0
   48.4300   32.1840   41.2910 C   0  0  0  0  0  0  0  0  0  0  0  0
   49.2340   33.2700   40.8730 N   0  0  0  0  0  0  0  0  0  0  0  0
   49.4010   34.3530   41.7730 C   0  0  2  0  0  0  0  0  0  0  0  0
   48.8390   34.2060   43.1360 C   0  0  0  0  0  0  0  0  0  0  0  0
   44.9690   34.4900   45.6520 C   0  0  0  0  0  0  0  0  0  0  0  0
   45.7220   34.4780   44.4620 C   0  0  0  0  0  0  0  0  0  0  0  0
   46.7900   33.5760   44.3570 C   0  0  0  0  0  0  0  0  0  0  0  0
   47.0030   32.7840   45.4300 N   0  0  0  0  0  0  0  0  0  0  0  0
   46.2680   32.8140   46.5580 C   0  0  0  0  0  0  0  0  0  0  0  0
   45.2470   33.6740   46.6650 N   0  0  0  0  0  0  0  0  0  0  0  0
   46.6540   31.8580   47.6450 C   0  0  0  0  0  0  0  0  0  0  0  0
   45.8230   32.2590   48.8470 C   0  0  0  0  0  0  0  0  0  0  0  0
   48.7800   35.5910   41.1600 C   0  0  0  0  0  0  0  0  0  0  0  0
   49.5470   36.7130   41.4180 F   0  0  0  0  0  0  0  0  0  0  0  0
   47.5800   35.8030   41.8290 F   0  0  0  0  0  0  0  0  0  0  0  0
   48.6090   35.4910   39.8060 F   0  0  0  0  0  0  0  0  0  0  0  0
   46.7921   31.6671   42.5405 H   0  0  0  0  0  0  0  0  0  0  0  0
   46.5430   33.1167   41.4766 H   0  0  0  0  0  0  0  0  0  0  0  0
   49.0560   31.4993   41.8820 H   0  0  0  0  0  0  0  0  0  0  0  0
   48.0309   31.7179   40.3781 H   0  0  0  0  0  0  0  0  0  0  0  0
   50.1709   32.8964   40.6645 H   0  0  0  0  0  0  0  0  0  0  0  0
   50.4902   34.4077   41.9165 H   0  0  0  0  0  0  0  0  0  0  0  0
   49.5908   33.7014   43.7606 H   0  0  0  0  0  0  0  0  0  0  0  0
   48.5943   35.2236   43.4745 H   0  0  0  0  0  0  0  0  0  0  0  0
   44.1283   35.1931   45.7463 H   0  0  0  0  0  0  0  0  0  0  0  0
   45.4779   35.1603   43.6344 H   0  0  0  0  0  0  0  0  0  0  0  0
   46.4259   30.8240   47.3471 H   0  0  0  0  0  0  0  0  0  0  0  0
   47.7318   31.8977   47.8611 H   0  0  0  0  0  0  0  0  0  0  0  0
   46.3628   31.9985   49.7693 H   0  0  0  0  0  0  0  0  0  0  0  0
   45.6418   33.3437   48.8221 H   0  0  0  0  0  0  0  0  0  0  0  0
   44.8611   31.7259   48.8221 H   0  0  0  0  0  0  0  0  0  0  0  0
  1  9  1  0
  2  1  1  0
  3  2  1  0
  4  3  1  0
  4  5  1  0
  5  6  1  0
  6  1  1  0
  7 12  2  0
  8  7  1  0
  9  8  2  0
  9 10  1  0
 10 11  2  0
 11 12  1  0
 11 13  1  0
 13 14  1  0
 15 16  1  0
 15  5  1  0
 15 17  1  0
 18 15  1  0
  2 19  1  0
  2 20  1  0
  3 21  1  0
  3 22  1  0
  4 23  1  0
  5 24  1  1
  6 25  1  0
  6 26  1  0
  7 27  1  0
  8 28  1  0
 13 29  1  0
 13 30  1  0
 14 31  1  0
 14 32  1  0
 14 33  1  0
M  ISO  8  19  13  20  13  21  13  22  13  23   5  24  13  25  13  26  13
M  ISO  7  27  14  28  14  29   8  30   8  31   8  32   8  33   8
M  END
>  <minimizedAffinity>  (1) 
-5.52535343

>  <minimizedRMSD>  (1) 
0.341923296

$$$$
