
     RDKit          3D

 43 46  0  0  1  0  0  0  0  0999 V2000
   44.7190   35.0850   45.3330 C   0  0  0  0  0  0  0  0  0  0  0  0
   45.5200   34.9550   44.1780 C   0  0  0  0  0  0  0  0  0  0  0  0
   46.4800   33.9520   44.1420 C   0  0  0  0  0  0  0  0  0  0  0  0
   46.5630   33.1650   45.2490 N   0  0  0  0  0  0  0  0  0  0  0  0
   45.7870   33.3080   46.3370 C   0  0  0  0  0  0  0  0  0  0  0  0
   44.8540   34.2810   46.3770 N   0  0  0  0  0  0  0  0  0  0  0  0
   47.3500   33.7120   43.0460 N   0  0  0  0  0  0  0  0  0  0  0  0
   46.9300   32.8500   41.9530 C   0  0  0  0  0  0  0  0  0  0  0  0
   48.1270   32.3340   41.1850 C   0  0  0  0  0  0  0  0  0  0  0  0
   49.0630   33.3040   40.7940 N   0  0  0  0  0  0  0  0  0  0  0  0
   49.2800   34.3870   41.6860 C   0  0  2  0  0  0  0  0  0  0  0  0
   48.6420   34.3150   43.0110 C   0  0  0  0  0  0  0  0  0  0  0  0
   48.8200   35.6670   41.0180 C   0  0  0  0  0  0  0  0  0  0  0  0
   49.6370   36.7250   41.4090 F   0  0  0  0  0  0  0  0  0  0  0  0
   47.5660   35.9430   41.5330 F   0  0  0  0  0  0  0  0  0  0  0  0
   48.8350   35.6130   39.6610 F   0  0  0  0  0  0  0  0  0  0  0  0
   45.9550   32.4160   47.4710 C   0  0  0  0  0  0  0  0  0  0  0  0
   44.8510   31.9670   48.1580 C   0  0  0  0  0  0  0  0  0  0  0  0
   45.0570   31.1090   49.2410 C   0  0  0  0  0  0  0  0  0  0  0  0
   46.3490   30.7760   49.5430 C   0  0  0  0  0  0  0  0  0  0  0  0
   47.4410   31.2210   48.8620 C   0  0  0  0  0  0  0  0  0  0  0  0
   47.2310   32.0490   47.8170 N   0  0  0  0  0  0  0  0  0  0  0  0
   48.7870   30.8410   49.2200 C   0  0  0  0  0  0  0  0  0  0  0  0
   49.7700   31.3830   49.9940 C   0  0  0  0  0  0  0  0  0  0  0  0
   50.9500   30.6920   50.0840 C   0  0  0  0  0  0  0  0  0  0  0  0
   51.0980   29.4970   49.4040 C   0  0  0  0  0  0  0  0  0  0  0  0
   49.4760   29.3110   48.5700 S   0  0  0  0  0  0  0  0  0  0  0  0
   43.9586   35.8791   45.3672 H   0  0  0  0  0  0  0  0  0  0  0  0
   45.3865   35.6346   43.3234 H   0  0  0  0  0  0  0  0  0  0  0  0
   46.3688   31.9968   42.3618 H   0  0  0  0  0  0  0  0  0  0  0  0
   46.2962   33.4326   41.2682 H   0  0  0  0  0  0  0  0  0  0  0  0
   48.6455   31.6005   41.8200 H   0  0  0  0  0  0  0  0  0  0  0  0
   47.7255   31.9113   40.2522 H   0  0  0  0  0  0  0  0  0  0  0  0
   49.9660   32.8275   40.6584 H   0  0  0  0  0  0  0  0  0  0  0  0
   50.3599   34.3470   41.8914 H   0  0  0  0  0  0  0  0  0  0  0  0
   49.3028   33.7358   43.6727 H   0  0  0  0  0  0  0  0  0  0  0  0
   48.4936   35.3578   43.3281 H   0  0  0  0  0  0  0  0  0  0  0  0
   43.8367   32.2743   47.8635 H   0  0  0  0  0  0  0  0  0  0  0  0
   44.2135   30.7166   49.8279 H   0  0  0  0  0  0  0  0  0  0  0  0
   46.5176   30.1016   50.3955 H   0  0  0  0  0  0  0  0  0  0  0  0
   49.6220   32.3354   50.5242 H   0  0  0  0  0  0  0  0  0  0  0  0
   51.7758   31.0862   50.6945 H   0  0  0  0  0  0  0  0  0  0  0  0
   51.9696   28.8267   49.3716 H   0  0  0  0  0  0  0  0  0  0  0  0
  1  6  2  0
  2  1  1  0
  3  2  2  0
  3  4  1  0
  4  5  2  0
  5  6  1  0
  5 17  1  0
  7  3  1  0
  8  7  1  0
  9  8  1  0
 10  9  1  0
 10 11  1  0
 11 12  1  0
 12  7  1  0
 13 14  1  0
 13 15  1  0
 13 11  1  0
 16 13  1  0
 17 22  1  0
 17 18  2  0
 18 19  1  0
 19 20  2  0
 21 23  1  0
 21 20  1  0
 22 21  2  0
 23 24  2  0
 24 25  1  0
 26 25  2  0
 27 23  1  0
 27 26  1  0
  1 28  1  0
  2 29  1  0
  8 30  1  0
  8 31  1  0
  9 32  1  0
  9 33  1  0
 10 34  1  0
 11 35  1  1
 12 36  1  0
 12 37  1  0
 18 38  1  0
 19 39  1  0
 20 40  1  0
 24 41  1  0
 25 42  1  0
 26 43  1  0
M  ISO  8  28  14  29  14  30  13  31  13  32  13  33  13  34   5  35  13
M  ISO  8  36  13  37  13  38  14  39  14  40  14  41  14  42  14  43  14
M  END
>  <minimizedAffinity>  (1) 
-7.18149853

>  <minimizedRMSD>  (1) 
0.289077342

$$$$
