
     RDKit          3D

 38 40  0  0  1  0  0  0  0  0999 V2000
   44.7300   35.0540   45.2800 C   0  0  0  0  0  0  0  0  0  0  0  0
   45.5170   34.9360   44.1220 C   0  0  0  0  0  0  0  0  0  0  0  0
   46.4960   33.9470   44.0910 C   0  0  0  0  0  0  0  0  0  0  0  0
   46.6080   33.1680   45.2000 N   0  0  0  0  0  0  0  0  0  0  0  0
   45.8440   33.3040   46.2880 C   0  0  0  0  0  0  0  0  0  0  0  0
   44.8870   34.2690   46.3210 N   0  0  0  0  0  0  0  0  0  0  0  0
   47.3660   33.7100   42.9880 N   0  0  0  0  0  0  0  0  0  0  0  0
   46.9490   32.8660   41.8930 C   0  0  0  0  0  0  0  0  0  0  0  0
   48.1230   32.3370   41.1120 C   0  0  0  0  0  0  0  0  0  0  0  0
   49.0560   33.3110   40.7240 N   0  0  0  0  0  0  0  0  0  0  0  0
   49.2950   34.3870   41.6320 C   0  0  2  0  0  0  0  0  0  0  0  0
   48.6640   34.3110   42.9580 C   0  0  0  0  0  0  0  0  0  0  0  0
   48.8440   35.6730   40.9710 C   0  0  0  0  0  0  0  0  0  0  0  0
   49.6490   36.7390   41.3750 F   0  0  0  0  0  0  0  0  0  0  0  0
   47.5770   35.9460   41.4720 F   0  0  0  0  0  0  0  0  0  0  0  0
   48.8640   35.6420   39.6060 F   0  0  0  0  0  0  0  0  0  0  0  0
   46.0310   32.4240   47.4370 C   0  0  0  0  0  0  0  0  0  0  0  0
   44.9170   31.9150   48.0940 C   0  0  0  0  0  0  0  0  0  0  0  0
   45.1640   31.0780   49.1880 C   0  0  0  0  0  0  0  0  0  0  0  0
   46.4750   30.8320   49.5170 C   0  0  0  0  0  0  0  0  0  0  0  0
   47.5680   31.3370   48.8650 C   0  0  0  0  0  0  0  0  0  0  0  0
   47.3010   32.1490   47.8050 N   0  0  0  0  0  0  0  0  0  0  0  0
   48.9440   31.0530   49.2460 C   0  0  0  0  0  0  0  0  0  0  0  0
   49.2100   30.3300   50.2270 O   0  0  0  0  0  0  0  0  0  0  0  0
   43.9538   35.8326   45.3159 H   0  0  0  0  0  0  0  0  0  0  0  0
   45.3637   35.6066   43.2637 H   0  0  0  0  0  0  0  0  0  0  0  0
   46.3785   32.0164   42.2963 H   0  0  0  0  0  0  0  0  0  0  0  0
   46.3321   33.4711   41.2124 H   0  0  0  0  0  0  0  0  0  0  0  0
   48.6423   31.5940   41.7352 H   0  0  0  0  0  0  0  0  0  0  0  0
   47.7128   31.9125   40.1838 H   0  0  0  0  0  0  0  0  0  0  0  0
   49.9549   32.8333   40.5668 H   0  0  0  0  0  0  0  0  0  0  0  0
   50.3743   34.3340   41.8377 H   0  0  0  0  0  0  0  0  0  0  0  0
   49.3241   33.7252   43.6146 H   0  0  0  0  0  0  0  0  0  0  0  0
   48.5231   35.3515   43.2859 H   0  0  0  0  0  0  0  0  0  0  0  0
   43.8939   32.1576   47.7707 H   0  0  0  0  0  0  0  0  0  0  0  0
   44.3387   30.6333   49.7634 H   0  0  0  0  0  0  0  0  0  0  0  0
   46.6626   30.1731   50.3776 H   0  0  0  0  0  0  0  0  0  0  0  0
   49.7662   31.4849   48.6566 H   0  0  0  0  0  0  0  0  0  0  0  0
  1  6  2  0
  2  1  1  0
  3  2  2  0
  3  4  1  0
  4  5  2  0
  5  6  1  0
  5 17  1  0
  7  3  1  0
  8  7  1  0
  9  8  1  0
 10  9  1  0
 10 11  1  0
 11 12  1  0
 12  7  1  0
 13 14  1  0
 13 15  1  0
 13 11  1  0
 16 13  1  0
 17 22  1  0
 17 18  2  0
 18 19  1  0
 19 20  2  0
 21 23  1  0
 21 20  1  0
 22 21  2  0
 23 24  2  0
  1 25  1  0
  2 26  1  0
  8 27  1  0
  8 28  1  0
  9 29  1  0
  9 30  1  0
 10 31  1  0
 11 32  1  1
 12 33  1  0
 12 34  1  0
 18 35  1  0
 19 36  1  0
 20 37  1  0
 23 38  1  0
M  ISO  8  25  14  26  14  27  13  28  13  29  13  30  13  31   5  32  13
M  ISO  6  33  13  34  13  35  14  36  14  37  14  38   6
M  END
>  <minimizedAffinity>  (1) 
-6.67333984

>  <minimizedRMSD>  (1) 
0.187755406

$$$$
