
     RDKit          3D

 26 28  0  0  0  0  0  0  0  0999 V2000
   46.8200   32.7260   45.1280 C   0  0  0  0  0  0  0  0  0  0  0  0
   47.6750   32.1970   44.2380 N   0  0  0  0  0  0  0  0  0  0  0  0
   47.8730   32.7040   43.0090 C   0  0  0  0  0  0  0  0  0  0  0  0
   47.2120   33.7940   42.5830 N   0  0  0  0  0  0  0  0  0  0  0  0
   46.3430   34.3760   43.4160 C   0  0  0  0  0  0  0  0  0  0  0  0
   45.6540   35.4960   42.9980 C   0  0  0  0  0  0  0  0  0  0  0  0
   44.7380   36.1360   43.8300 C   0  0  0  0  0  0  0  0  0  0  0  0
   44.5650   35.5780   45.0930 C   0  0  0  0  0  0  0  0  0  0  0  0
   45.2690   34.4730   45.4560 C   0  0  0  0  0  0  0  0  0  0  0  0
   46.1650   33.8380   44.6560 C   0  0  0  0  0  0  0  0  0  0  0  0
   45.5780   30.2900   47.6080 C   0  0  0  0  0  0  0  0  0  0  0  0
   45.8450   30.9980   46.4360 C   0  0  0  0  0  0  0  0  0  0  0  0
   46.6600   32.1260   46.4350 C   0  0  0  0  0  0  0  0  0  0  0  0
   47.1360   32.4320   47.6580 N   0  0  0  0  0  0  0  0  0  0  0  0
   46.8950   31.7730   48.7900 C   0  0  0  0  0  0  0  0  0  0  0  0
   46.1110   30.6880   48.7870 N   0  0  0  0  0  0  0  0  0  0  0  0
   45.2000   30.4400   45.2640 N   0  0  0  0  0  0  0  0  0  0  0  0
   48.5930   32.2153   42.3360 H   0  0  0  0  0  0  0  0  0  0  0  0
   45.8316   35.8917   41.9871 H   0  0  0  0  0  0  0  0  0  0  0  0
   44.1840   37.0299   43.5075 H   0  0  0  0  0  0  0  0  0  0  0  0
   43.8559   36.0327   45.8004 H   0  0  0  0  0  0  0  0  0  0  0  0
   45.1021   34.0661   46.4642 H   0  0  0  0  0  0  0  0  0  0  0  0
   44.9297   29.4020   47.5739 H   0  0  0  0  0  0  0  0  0  0  0  0
   47.3425   32.1221   49.7323 H   0  0  0  0  0  0  0  0  0  0  0  0
   45.3296   30.8847   44.3440 H   0  0  0  0  0  0  0  0  0  0  0  0
   44.6121   29.5988   45.3511 H   0  0  0  0  0  0  0  0  0  0  0  0
  1 13  1  0
  2  1  2  0
  3  2  1  0
  4  3  2  0
  4  5  1  0
  5 10  2  0
  6  5  1  0
  6  7  2  0
  7  8  1  0
  8  9  2  0
 10  1  1  0
 10  9  1  0
 11 16  2  0
 12 11  1  0
 13 12  2  0
 13 14  1  0
 14 15  2  0
 16 15  1  0
 17 12  1  0
  3 18  1  0
  6 19  1  0
  7 20  1  0
  8 21  1  0
  9 22  1  0
 11 23  1  0
 15 24  1  0
 17 25  1  0
 17 26  1  0
M  ISO  7  18  14  19  14  20  14  21  14  22  14  23  14  24  14
M  END
>  <minimizedAffinity>  (1) 
-5.49157047

>  <minimizedRMSD>  (1) 
4.85481787

$$$$
