
     RDKit          3D

 18 18  0  0  0  0  0  0  0  0999 V2000
   44.7200   35.3240   44.9190 C   0  0  0  0  0  0  0  0  0  0  0  0
   45.3290   35.6060   43.6900 C   0  0  0  0  0  0  0  0  0  0  0  0
   46.3830   34.7880   43.2940 C   0  0  0  0  0  0  0  0  0  0  0  0
   46.7520   33.7770   44.1210 N   0  0  0  0  0  0  0  0  0  0  0  0
   46.1460   33.5370   45.2920 C   0  0  0  0  0  0  0  0  0  0  0  0
   45.1140   34.3120   45.7110 N   0  0  0  0  0  0  0  0  0  0  0  0
   44.8100   36.7080   42.9520 N   0  0  0  0  0  0  0  0  0  0  0  0
   46.9340   35.1150   42.0850 O   0  0  0  0  0  0  0  0  0  0  0  0
   49.5330   35.1330   42.6860 O   0  0  0  0  0  0  0  0  0  0  0  0
   48.5250   34.8470   41.5880 P   0  0  0  0  0  0  0  0  0  0  0  0
   48.7290   33.2320   41.1440 O   0  0  0  0  0  0  0  0  0  0  0  0
   48.9670   35.7930   40.2550 O   0  0  0  0  0  0  0  0  0  0  0  0
   43.8839   35.9574   45.2502 H   0  0  0  0  0  0  0  0  0  0  0  0
   46.4892   32.7021   45.9207 H   0  0  0  0  0  0  0  0  0  0  0  0
   45.2220   36.9580   42.0417 H   0  0  0  0  0  0  0  0  0  0  0  0
   44.0226   37.2549   43.3286 H   0  0  0  0  0  0  0  0  0  0  0  0
   48.7997   32.6725   41.9577 H   0  0  0  0  0  0  0  0  0  0  0  0
   49.3642   36.6431   40.5708 H   0  0  0  0  0  0  0  0  0  0  0  0
  1  6  2  0
  2  1  1  0
  3  2  2  0
  3  4  1  0
  4  5  2  0
  5  6  1  0
  7  2  1  0
  8  3  1  0
 10  8  1  0
 10  9  2  0
 11 10  1  0
 12 10  1  0
  1 13  1  0
  5 14  1  0
  7 15  1  0
  7 16  1  0
 11 17  1  0
 12 18  1  0
M  ISO  4  13  14  14  14  17   3  18   3
M  END
>  <minimizedAffinity>  (1) 
-4.43633509

>  <minimizedRMSD>  (1) 
3.0023911

$$$$
