
     RDKit          3D

 13 13  0  0  0  0  0  0  0  0999 V2000
   44.3880   35.8100   44.6060 C   0  0  0  0  0  0  0  0  0  0  0  0
   44.5710   35.3090   43.3140 C   0  0  0  0  0  0  0  0  0  0  0  0
   45.2000   34.0890   43.1330 C   0  0  0  0  0  0  0  0  0  0  0  0
   45.6090   33.4440   44.2660 N   0  0  0  0  0  0  0  0  0  0  0  0
   45.4260   33.9380   45.4990 C   0  0  0  0  0  0  0  0  0  0  0  0
   44.8120   35.1320   45.6800 N   0  0  0  0  0  0  0  0  0  0  0  0
   44.0710   36.1330   42.2560 N   0  0  0  0  0  0  0  0  0  0  0  0
   45.3590   33.6300   41.8530 O   0  0  0  0  0  0  0  0  0  0  0  0
   43.8863   36.7793   44.7430 H   0  0  0  0  0  0  0  0  0  0  0  0
   45.7777   33.3684   46.3718 H   0  0  0  0  0  0  0  0  0  0  0  0
   44.1694   35.8297   41.2766 H   0  0  0  0  0  0  0  0  0  0  0  0
   43.6127   37.0293   42.4740 H   0  0  0  0  0  0  0  0  0  0  0  0
   45.8048   32.7611   41.6905 H   0  0  0  0  0  0  0  0  0  0  0  0
  1  6  2  0
  2  1  1  0
  3  2  2  0
  3  4  1  0
  4  5  2  0
  5  6  1  0
  7  2  1  0
  8  3  1  0
  1  9  1  0
  5 10  1  0
  7 11  1  0
  7 12  1  0
  8 13  1  0
M  ISO  3   9  14  10  14  13   3
M  END
>  <minimizedAffinity>  (1) 
-2.95125127

>  <minimizedRMSD>  (1) 
0.0128604295

$$$$
