
     RDKit          3D

 26 27  0  0  0  0  0  0  0  0999 V2000
   46.1190   34.4910   43.4200 C   0  0  0  0  0  0  0  0  0  0  0  0
   45.2280   35.5050   43.3250 C   0  0  0  0  0  0  0  0  0  0  0  0
   44.5200   35.5620   45.0420 S   0  0  0  0  0  0  0  0  0  0  0  0
   45.6170   34.1450   45.5600 C   0  0  0  0  0  0  0  0  0  0  0  0
   46.1810   33.9340   44.5900 N   0  0  0  0  0  0  0  0  0  0  0  0
   45.5110   33.6830   46.9500 N   0  0  0  0  0  0  0  0  0  0  0  0
   48.0500   32.3830   40.9590 C   0  0  0  0  0  0  0  0  0  0  0  0
   47.2520   32.7350   42.0500 C   0  0  0  0  0  0  0  0  0  0  0  0
   46.9560   34.0540   42.2800 C   0  0  0  0  0  0  0  0  0  0  0  0
   47.4890   34.9600   41.3830 N   0  0  0  0  0  0  0  0  0  0  0  0
   48.2510   34.5980   40.3450 C   0  0  0  0  0  0  0  0  0  0  0  0
   48.5310   33.3020   40.1350 N   0  0  0  0  0  0  0  0  0  0  0  0
   46.7970   31.6520   42.8640 N   0  0  0  0  0  0  0  0  0  0  0  0
   45.7930   32.0910   47.4380 S   0  0  0  0  0  0  0  0  0  0  0  0
   44.6240   31.6670   48.3170 O   0  0  0  0  0  0  0  0  0  0  0  0
   45.8970   31.1120   46.3390 O   0  0  0  0  0  0  0  0  0  0  0  0
   47.1320   32.0910   48.4640 O   0  0  0  0  0  0  0  0  0  0  0  0
   44.9854   36.1335   42.4555 H   0  0  0  0  0  0  0  0  0  0  0  0
   45.2490   34.3711   47.6703 H   0  0  0  0  0  0  0  0  0  0  0  0
   48.2834   31.3229   40.7807 H   0  0  0  0  0  0  0  0  0  0  0  0
   48.6488   35.3634   39.6624 H   0  0  0  0  0  0  0  0  0  0  0  0
   46.2043   31.8388   43.6854 H   0  0  0  0  0  0  0  0  0  0  0  0
   47.0617   30.6847   42.6292 H   0  0  0  0  0  0  0  0  0  0  0  0
   44.8772   31.7588   49.2697 H   0  0  0  0  0  0  0  0  0  0  0  0
   45.9937   30.2017   46.7160 H   0  0  0  0  0  0  0  0  0  0  0  0
   47.3939   31.1576   48.6647 H   0  0  0  0  0  0  0  0  0  0  0  0
  1  5  1  0
  2  1  2  0
  2  3  1  0
  3  4  1  0
  4  6  1  0
  5  4  2  0
  6 14  1  0
  7  8  2  0
  8  9  1  0
  8 13  1  0
  9  1  1  0
 10  9  2  0
 11 10  1  0
 12 11  2  0
 12  7  1  0
 14 15  1  0
 14 17  1  0
 16 14  1  0
  2 18  1  0
  6 19  1  0
  7 20  1  0
 11 21  1  0
 13 22  1  0
 13 23  1  0
 15 24  1  0
 16 25  1  0
 17 26  1  0
M  ISO  6  18  14  20  14  21  14  24   3  25   3  26   3
M  END
>  <minimizedAffinity>  (1) 
-4.65521765

>  <minimizedRMSD>  (1) 
6.7293911

$$$$
