
     RDKit          3D

 30 32  0  0  0  0  0  0  0  0999 V2000
   45.2970   32.8450   42.2350 C   0  0  0  0  0  0  0  0  0  0  0  0
   44.7200   31.6090   42.1840 C   0  0  0  0  0  0  0  0  0  0  0  0
   45.3810   30.9310   40.5890 S   0  0  0  0  0  0  0  0  0  0  0  0
   46.3480   32.5110   40.2880 C   0  0  0  0  0  0  0  0  0  0  0  0
   46.0630   33.1060   41.2150 N   0  0  0  0  0  0  0  0  0  0  0  0
   47.1700   32.7170   39.1340 N   0  0  0  0  0  0  0  0  0  0  0  0
   48.3670   33.5010   38.9430 C   0  0  0  0  0  0  0  0  0  0  0  0
   48.0490   34.2220   37.6520 C   0  0  0  0  0  0  0  0  0  0  0  0
   47.1090   33.2990   36.9050 C   0  0  0  0  0  0  0  0  0  0  0  0
   46.9240   32.1230   37.8390 C   0  0  0  0  0  0  0  0  0  0  0  0
   44.3400   35.8980   44.2230 C   0  0  0  0  0  0  0  0  0  0  0  0
   44.5290   35.0430   43.1180 C   0  0  0  0  0  0  0  0  0  0  0  0
   45.0700   33.7950   43.3480 C   0  0  0  0  0  0  0  0  0  0  0  0
   45.3860   33.4740   44.6370 N   0  0  0  0  0  0  0  0  0  0  0  0
   45.1970   34.3020   45.6690 C   0  0  0  0  0  0  0  0  0  0  0  0
   44.6720   35.5210   45.4590 N   0  0  0  0  0  0  0  0  0  0  0  0
   44.1390   35.5510   41.8450 N   0  0  0  0  0  0  0  0  0  0  0  0
   44.0372   31.1357   42.9049 H   0  0  0  0  0  0  0  0  0  0  0  0
   48.5211   34.2082   39.7713 H   0  0  0  0  0  0  0  0  0  0  0  0
   49.2926   32.9076   38.9103 H   0  0  0  0  0  0  0  0  0  0  0  0
   47.5606   35.1858   37.8583 H   0  0  0  0  0  0  0  0  0  0  0  0
   48.9558   34.4448   37.0706 H   0  0  0  0  0  0  0  0  0  0  0  0
   46.1477   33.7965   36.7089 H   0  0  0  0  0  0  0  0  0  0  0  0
   47.5044   32.9993   35.9232 H   0  0  0  0  0  0  0  0  0  0  0  0
   45.9030   31.7189   37.7735 H   0  0  0  0  0  0  0  0  0  0  0  0
   47.5832   31.2721   37.6121 H   0  0  0  0  0  0  0  0  0  0  0  0
   43.9095   36.8975   44.0626 H   0  0  0  0  0  0  0  0  0  0  0  0
   45.4703   33.9867   46.6868 H   0  0  0  0  0  0  0  0  0  0  0  0
   43.7424   36.4984   41.7681 H   0  0  0  0  0  0  0  0  0  0  0  0
   44.2538   34.9707   41.0018 H   0  0  0  0  0  0  0  0  0  0  0  0
  1 13  1  0
  2  1  2  0
  3  2  1  0
  4  3  1  0
  4  5  2  0
  5  1  1  0
  6  4  1  0
  7  6  1  0
  8  7  1  0
  9  8  1  0
  9 10  1  0
 10  6  1  0
 11 16  2  0
 12 13  2  0
 12 11  1  0
 13 14  1  0
 14 15  2  0
 16 15  1  0
 17 12  1  0
  2 18  1  0
  7 19  1  0
  7 20  1  0
  8 21  1  0
  8 22  1  0
  9 23  1  0
  9 24  1  0
 10 25  1  0
 10 26  1  0
 11 27  1  0
 15 28  1  0
 17 29  1  0
 17 30  1  0
M  ISO  8  18  14  19  13  20  13  21  13  22  13  23  13  24  13  25  13
M  ISO  3  26  13  27  14  28  14
M  END
>  <minimizedAffinity>  (1) 
-4.09017134

>  <minimizedRMSD>  (1) 
3.57633924

$$$$
