
     RDKit          3D

 26 27  0  0  0  0  0  0  0  0999 V2000
   46.0200   33.9770   42.9610 C   0  0  0  0  0  0  0  0  0  0  0  0
   45.3450   33.2540   42.0250 C   0  0  0  0  0  0  0  0  0  0  0  0
   46.3480   33.6000   40.4920 S   0  0  0  0  0  0  0  0  0  0  0  0
   47.5090   34.6830   41.4630 C   0  0  0  0  0  0  0  0  0  0  0  0
   47.0520   34.6120   42.5110 N   0  0  0  0  0  0  0  0  0  0  0  0
   44.4770   35.0880   46.2120 C   0  0  0  0  0  0  0  0  0  0  0  0
   44.8480   35.1030   44.8530 C   0  0  0  0  0  0  0  0  0  0  0  0
   45.6010   34.0310   44.3750 C   0  0  0  0  0  0  0  0  0  0  0  0
   45.9290   33.0310   45.2710 N   0  0  0  0  0  0  0  0  0  0  0  0
   45.5450   33.0770   46.5510 C   0  0  0  0  0  0  0  0  0  0  0  0
   44.8290   34.0830   47.0310 N   0  0  0  0  0  0  0  0  0  0  0  0
   44.4220   36.2090   44.0970 N   0  0  0  0  0  0  0  0  0  0  0  0
   48.6830   35.3750   40.8280 C   0  0  0  0  0  0  0  0  0  0  0  0
   49.4560   36.1580   41.8550 C   0  0  0  0  0  0  0  0  0  0  0  0
   50.0380   35.2560   42.8060 N   0  0  0  0  0  0  0  0  0  0  0  0
   44.4461   32.6309   42.1423 H   0  0  0  0  0  0  0  0  0  0  0  0
   43.8828   35.9221   46.6135 H   0  0  0  0  0  0  0  0  0  0  0  0
   45.8318   32.2561   47.2247 H   0  0  0  0  0  0  0  0  0  0  0  0
   44.6638   36.2738   43.0979 H   0  0  0  0  0  0  0  0  0  0  0  0
   43.8681   36.9546   44.5422 H   0  0  0  0  0  0  0  0  0  0  0  0
   49.3444   34.6220   40.3746 H   0  0  0  0  0  0  0  0  0  0  0  0
   48.3121   36.0686   40.0590 H   0  0  0  0  0  0  0  0  0  0  0  0
   50.2529   36.7296   41.3567 H   0  0  0  0  0  0  0  0  0  0  0  0
   48.7776   36.8507   42.3746 H   0  0  0  0  0  0  0  0  0  0  0  0
   49.8282   35.5812   43.7605 H   0  0  0  0  0  0  0  0  0  0  0  0
   49.6452   34.3136   42.6702 H   0  0  0  0  0  0  0  0  0  0  0  0
  1  8  1  0
  2  1  2  0
  3  4  1  0
  3  2  1  0
  4  5  2  0
  5  1  1  0
  6 11  2  0
  7  6  1  0
  8  7  2  0
  8  9  1  0
  9 10  2  0
 10 11  1  0
 12  7  1  0
 13  4  1  0
 13 14  1  0
 14 15  1  0
  2 16  1  0
  6 17  1  0
 10 18  1  0
 12 19  1  0
 12 20  1  0
 13 21  1  0
 13 22  1  0
 14 23  1  0
 14 24  1  0
 15 25  1  0
 15 26  1  0
M  ISO  8  16  14  17  14  18  14  21   8  22   8  23   8  24   8  25   5
M  ISO  1  26   5
M  END
>  <minimizedAffinity>  (1) 
-4.61477995

>  <minimizedRMSD>  (1) 
0.236438602

$$$$
