
     RDKit          3D

 40 42  0  0  0  0  0  0  0  0999 V2000
   44.6790   35.8700   42.6600 C   0  0  0  0  0  0  0  0  0  0  0  0
   47.4000   33.5290   43.5560 C   0  0  0  0  0  0  0  0  0  0  0  0
   46.9870   33.1790   44.7920 C   0  0  0  0  0  0  0  0  0  0  0  0
   45.4350   34.1660   44.9620 S   0  0  0  0  0  0  0  0  0  0  0  0
   45.6420   34.8920   43.2700 C   0  0  0  0  0  0  0  0  0  0  0  0
   46.6110   34.3730   42.9740 N   0  0  0  0  0  0  0  0  0  0  0  0
   50.8710   33.2000   42.1150 C   0  0  0  0  0  0  0  0  0  0  0  0
   49.7360   33.7820   42.7330 C   0  0  0  0  0  0  0  0  0  0  0  0
   48.6260   33.0080   42.9220 C   0  0  0  0  0  0  0  0  0  0  0  0
   48.6990   31.6940   42.4870 N   0  0  0  0  0  0  0  0  0  0  0  0
   49.8010   31.1850   41.9050 C   0  0  0  0  0  0  0  0  0  0  0  0
   50.8830   31.9260   41.7160 N   0  0  0  0  0  0  0  0  0  0  0  0
   49.8440   35.1400   43.1100 N   0  0  0  0  0  0  0  0  0  0  0  0
   44.1660   35.3770   41.3520 C   0  0  0  0  0  0  0  0  0  0  0  0
   42.7830   34.9820   41.2980 C   0  0  0  0  0  0  0  0  0  0  0  0
   41.6460   35.7370   41.1460 C   0  0  0  0  0  0  0  0  0  0  0  0
   40.3420   35.2630   41.1050 C   0  0  0  0  0  0  0  0  0  0  0  0
   40.2090   33.8990   41.2300 C   0  0  0  0  0  0  0  0  0  0  0  0
   41.3500   33.1450   41.3820 C   0  0  0  0  0  0  0  0  0  0  0  0
   42.5840   33.6300   41.4180 N   0  0  0  0  0  0  0  0  0  0  0  0
   38.3020   33.4590   39.8960 C   0  0  0  0  0  0  0  0  0  0  0  0
   38.8620   33.9300   38.8630 O   0  0  0  0  0  0  0  0  0  0  0  0
   38.8840   33.3810   41.1920 N   0  0  0  0  0  0  0  0  0  0  0  0
   41.0760   31.6790   41.5080 C   0  0  0  0  0  0  0  0  0  0  0  0
   40.0630   31.4560   42.4420 F   0  0  0  0  0  0  0  0  0  0  0  0
   42.2090   30.9470   41.7560 F   0  0  0  0  0  0  0  0  0  0  0  0
   40.5560   31.1980   40.3080 F   0  0  0  0  0  0  0  0  0  0  0  0
   43.8315   36.0144   43.3463 H   0  0  0  0  0  0  0  0  0  0  0  0
   45.2077   36.8196   42.4909 H   0  0  0  0  0  0  0  0  0  0  0  0
   47.4524   32.4875   45.5098 H   0  0  0  0  0  0  0  0  0  0  0  0
   51.7687   33.8164   41.9595 H   0  0  0  0  0  0  0  0  0  0  0  0
   49.8032   30.1340   41.5802 H   0  0  0  0  0  0  0  0  0  0  0  0
   49.0493   35.6135   43.5630 H   0  0  0  0  0  0  0  0  0  0  0  0
   50.7174   35.6561   42.9317 H   0  0  0  0  0  0  0  0  0  0  0  0
   44.3103   36.1808   40.6150 H   0  0  0  0  0  0  0  0  0  0  0  0
   44.7335   34.4561   41.1521 H   0  0  0  0  0  0  0  0  0  0  0  0
   41.7820   36.8241   41.0470 H   0  0  0  0  0  0  0  0  0  0  0  0
   39.4763   35.9303   40.9814 H   0  0  0  0  0  0  0  0  0  0  0  0
   37.2768   33.0770   39.7818 H   0  0  0  0  0  0  0  0  0  0  0  0
   38.3991   32.9920   42.0133 H   0  0  0  0  0  0  0  0  0  0  0  0
  1  5  1  0
  2  3  2  0
  3  4  1  0
  5  4  1  0
  6  5  2  0
  6  2  1  0
  7  8  2  0
  8  9  1  0
  8 13  1  0
  9  2  1  0
 10  9  2  0
 11 10  1  0
 12 11  2  0
 12  7  1  0
 14  1  1  0
 15 14  1  0
 15 20  1  0
 16 15  2  0
 17 16  1  0
 17 18  2  0
 18 19  1  0
 19 20  2  0
 19 24  1  0
 21 23  1  0
 22 21  2  0
 23 18  1  0
 24 26  1  0
 24 25  1  0
 27 24  1  0
  1 28  1  0
  1 29  1  0
  3 30  1  0
  7 31  1  0
 11 32  1  0
 13 33  1  0
 13 34  1  0
 14 35  1  0
 14 36  1  0
 16 37  1  0
 17 38  1  0
 21 39  1  0
 23 40  1  0
M  ISO  8  28   8  29   8  30  14  31  14  32  14  35   8  36   8  37  14
M  ISO  2  38  14  39   6
M  END
>  <minimizedAffinity>  (1) 
-6.42042971

>  <minimizedRMSD>  (1) 
2.45191622

$$$$
