
     RDKit          3D

 43 46  0  0  0  0  0  0  0  0999 V2000
   43.4430   35.5280   41.8330 C   0  0  0  0  0  0  0  0  0  0  0  0
   46.5880   33.7250   42.5210 C   0  0  0  0  0  0  0  0  0  0  0  0
   46.6960   33.9580   43.8340 C   0  0  0  0  0  0  0  0  0  0  0  0
   45.1860   34.9750   44.1630 S   0  0  0  0  0  0  0  0  0  0  0  0
   44.6750   34.8850   42.3780 C   0  0  0  0  0  0  0  0  0  0  0  0
   45.5360   34.2600   41.9940 N   0  0  0  0  0  0  0  0  0  0  0  0
   49.3000   32.6870   40.1180 C   0  0  0  0  0  0  0  0  0  0  0  0
   48.3940   33.5090   40.8090 C   0  0  0  0  0  0  0  0  0  0  0  0
   47.5740   32.9320   41.7460 C   0  0  0  0  0  0  0  0  0  0  0  0
   47.7000   31.5710   41.9440 N   0  0  0  0  0  0  0  0  0  0  0  0
   48.5900   30.8300   41.2500 C   0  0  0  0  0  0  0  0  0  0  0  0
   49.3850   31.3830   40.3440 N   0  0  0  0  0  0  0  0  0  0  0  0
   48.3960   34.8850   40.4810 N   0  0  0  0  0  0  0  0  0  0  0  0
   43.3520   35.3680   40.3470 C   0  0  0  0  0  0  0  0  0  0  0  0
   42.0930   34.8990   39.8180 C   0  0  0  0  0  0  0  0  0  0  0  0
   41.4730   35.1750   38.6380 C   0  0  0  0  0  0  0  0  0  0  0  0
   40.2550   34.6760   38.2090 C   0  0  0  0  0  0  0  0  0  0  0  0
   39.6290   33.8220   39.0770 C   0  0  0  0  0  0  0  0  0  0  0  0
   40.2520   33.5460   40.2620 C   0  0  0  0  0  0  0  0  0  0  0  0
   41.4240   34.0400   40.6520 N   0  0  0  0  0  0  0  0  0  0  0  0
   39.4840   32.6010   41.1420 C   0  0  0  0  0  0  0  0  0  0  0  0
   38.1250   32.8320   41.0330 F   0  0  0  0  0  0  0  0  0  0  0  0
   39.9120   32.6050   42.4440 F   0  0  0  0  0  0  0  0  0  0  0  0
   39.6640   31.2890   40.6750 F   0  0  0  0  0  0  0  0  0  0  0  0
   38.3210   33.3010   38.6110 C   0  0  0  0  0  0  0  0  0  0  0  0
   38.0160   33.4560   37.1650 C   0  0  0  0  0  0  0  0  0  0  0  0
   38.2650   32.1020   37.7030 C   0  0  0  0  0  0  0  0  0  0  0  0
   42.5613   35.0621   42.2973 H   0  0  0  0  0  0  0  0  0  0  0  0
   43.4843   36.6030   42.0625 H   0  0  0  0  0  0  0  0  0  0  0  0
   47.4781   33.6305   44.5347 H   0  0  0  0  0  0  0  0  0  0  0  0
   49.9609   33.1402   39.3644 H   0  0  0  0  0  0  0  0  0  0  0  0
   48.6569   29.7485   41.4394 H   0  0  0  0  0  0  0  0  0  0  0  0
   47.7505   35.5294   40.9594 H   0  0  0  0  0  0  0  0  0  0  0  0
   49.0430   35.2425   39.7637 H   0  0  0  0  0  0  0  0  0  0  0  0
   43.5587   36.3486   39.8936 H   0  0  0  0  0  0  0  0  0  0  0  0
   44.0796   34.5817   40.0974 H   0  0  0  0  0  0  0  0  0  0  0  0
   41.9924   35.8644   37.9562 H   0  0  0  0  0  0  0  0  0  0  0  0
   39.8194   34.9474   37.2361 H   0  0  0  0  0  0  0  0  0  0  0  0
   37.8377   33.5587   39.5649 H   0  0  0  0  0  0  0  0  0  0  0  0
   38.7544   33.9237   36.4972 H   0  0  0  0  0  0  0  0  0  0  0  0
   37.1989   33.9214   36.5942 H   0  0  0  0  0  0  0  0  0  0  0  0
   37.4369   31.3832   37.7904 H   0  0  0  0  0  0  0  0  0  0  0  0
   38.9517   31.2792   37.4554 H   0  0  0  0  0  0  0  0  0  0  0  0
  1  5  1  0
  2  3  2  0
  3  4  1  0
  5  4  1  0
  6  5  2  0
  6  2  1  0
  7 12  2  0
  7  8  1  0
  8  9  2  0
  9 10  1  0
  9  2  1  0
 11 10  2  0
 12 11  1  0
 13  8  1  0
 14  1  1  0
 15 14  1  0
 15 20  1  0
 16 15  2  0
 17 16  1  0
 17 18  2  0
 18 19  1  0
 19 20  2  0
 19 21  1  0
 21 23  1  0
 22 21  1  0
 24 21  1  0
 25 18  1  0
 26 27  1  0
 26 25  1  0
 27 25  1  0
  1 28  1  0
  1 29  1  0
  3 30  1  0
  7 31  1  0
 11 32  1  0
 13 33  1  0
 13 34  1  0
 14 35  1  0
 14 36  1  0
 16 37  1  0
 17 38  1  0
 25 39  1  0
 26 40  1  0
 26 41  1  0
 27 42  1  0
 27 43  1  0
M  ISO  8  28   8  29   8  30  14  31  14  32  14  35   8  36   8  37  14
M  ISO  6  38  14  39  13  40  13  41  13  42  13  43  13
M  END
>  <minimizedAffinity>  (1) 
-6.19186115

>  <minimizedRMSD>  (1) 
0.665251434

$$$$
