
     RDKit          3D

 39 41  0  0  0  0  0  0  0  0999 V2000
   43.4310   35.4740   41.7750 C   0  0  0  0  0  0  0  0  0  0  0  0
   46.6010   33.7100   42.5070 C   0  0  0  0  0  0  0  0  0  0  0  0
   46.6910   33.9660   43.8230 C   0  0  0  0  0  0  0  0  0  0  0  0
   45.1690   34.9660   44.1210 S   0  0  0  0  0  0  0  0  0  0  0  0
   44.6710   34.8490   42.3400 C   0  0  0  0  0  0  0  0  0  0  0  0
   45.5520   34.2210   41.9570 N   0  0  0  0  0  0  0  0  0  0  0  0
   49.3440   32.6700   40.1370 C   0  0  0  0  0  0  0  0  0  0  0  0
   48.4250   33.4880   40.8090 C   0  0  0  0  0  0  0  0  0  0  0  0
   47.6050   32.9190   41.7480 C   0  0  0  0  0  0  0  0  0  0  0  0
   47.7500   31.5610   41.9640 N   0  0  0  0  0  0  0  0  0  0  0  0
   48.6530   30.8270   41.2860 C   0  0  0  0  0  0  0  0  0  0  0  0
   49.4460   31.3770   40.3770 N   0  0  0  0  0  0  0  0  0  0  0  0
   48.4110   34.8600   40.4610 N   0  0  0  0  0  0  0  0  0  0  0  0
   43.3930   35.3570   40.2920 C   0  0  0  0  0  0  0  0  0  0  0  0
   42.1780   34.8590   39.7080 C   0  0  0  0  0  0  0  0  0  0  0  0
   41.6370   35.0800   38.4740 C   0  0  0  0  0  0  0  0  0  0  0  0
   40.4470   34.5510   37.9870 C   0  0  0  0  0  0  0  0  0  0  0  0
   39.7670   33.7270   38.8550 C   0  0  0  0  0  0  0  0  0  0  0  0
   40.3140   33.5120   40.0860 C   0  0  0  0  0  0  0  0  0  0  0  0
   41.4550   34.0320   40.5240 N   0  0  0  0  0  0  0  0  0  0  0  0
   39.4870   32.6170   40.9560 C   0  0  0  0  0  0  0  0  0  0  0  0
   38.1740   33.0370   40.9900 F   0  0  0  0  0  0  0  0  0  0  0  0
   40.0030   32.4830   42.2260 F   0  0  0  0  0  0  0  0  0  0  0  0
   39.4650   31.3360   40.4250 F   0  0  0  0  0  0  0  0  0  0  0  0
   38.5060   33.2570   38.2390 C   0  0  0  0  0  0  0  0  0  0  0  0
   37.3720   33.5190   39.0480 F   0  0  0  0  0  0  0  0  0  0  0  0
   38.4250   31.8400   38.2350 F   0  0  0  0  0  0  0  0  0  0  0  0
   38.1630   33.8170   37.0590 F   0  0  0  0  0  0  0  0  0  0  0  0
   42.5504   34.9674   42.1969 H   0  0  0  0  0  0  0  0  0  0  0  0
   43.4298   36.5419   42.0388 H   0  0  0  0  0  0  0  0  0  0  0  0
   47.4695   33.6592   44.5370 H   0  0  0  0  0  0  0  0  0  0  0  0
   50.0039   33.1228   39.3823 H   0  0  0  0  0  0  0  0  0  0  0  0
   48.7342   29.7493   41.4906 H   0  0  0  0  0  0  0  0  0  0  0  0
   47.7540   35.5026   40.9261 H   0  0  0  0  0  0  0  0  0  0  0  0
   49.0578   35.2157   39.7426 H   0  0  0  0  0  0  0  0  0  0  0  0
   43.5753   36.3585   39.8753 H   0  0  0  0  0  0  0  0  0  0  0  0
   44.1577   34.6058   40.0449 H   0  0  0  0  0  0  0  0  0  0  0  0
   42.1982   35.7421   37.7982 H   0  0  0  0  0  0  0  0  0  0  0  0
   40.0743   34.7757   36.9768 H   0  0  0  0  0  0  0  0  0  0  0  0
  1  5  1  0
  2  3  2  0
  3  4  1  0
  5  4  1  0
  6  5  2  0
  6  2  1  0
  7 12  2  0
  7  8  1  0
  8  9  2  0
  9 10  1  0
  9  2  1  0
 11 10  2  0
 12 11  1  0
 13  8  1  0
 14  1  1  0
 15 14  1  0
 15 20  1  0
 16 15  2  0
 17 16  1  0
 17 18  2  0
 18 19  1  0
 19 20  2  0
 19 21  1  0
 21 22  1  0
 21 23  1  0
 24 21  1  0
 25 18  1  0
 25 26  1  0
 27 25  1  0
 28 25  1  0
  1 29  1  0
  1 30  1  0
  3 31  1  0
  7 32  1  0
 11 33  1  0
 13 34  1  0
 13 35  1  0
 14 36  1  0
 14 37  1  0
 16 38  1  0
 17 39  1  0
M  ISO  8  29   8  30   8  31  14  32  14  33  14  36   8  37   8  38  14
M  ISO  1  39  14
M  END
>  <minimizedAffinity>  (1) 
-5.99104452

>  <minimizedRMSD>  (1) 
0.652782679

$$$$
