
     RDKit          3D

 40 42  0  0  0  0  0  0  0  0999 V2000
   43.5250   35.3250   42.0760 C   0  0  0  0  0  0  0  0  0  0  0  0
   46.7040   33.5320   42.7420 C   0  0  0  0  0  0  0  0  0  0  0  0
   46.7900   33.7440   44.0680 C   0  0  0  0  0  0  0  0  0  0  0  0
   45.2730   34.7280   44.3950 S   0  0  0  0  0  0  0  0  0  0  0  0
   44.7650   34.6810   42.6120 C   0  0  0  0  0  0  0  0  0  0  0  0
   45.6450   34.0720   42.2270 N   0  0  0  0  0  0  0  0  0  0  0  0
   49.4270   32.5570   40.3380 C   0  0  0  0  0  0  0  0  0  0  0  0
   48.5160   33.3660   41.0310 C   0  0  0  0  0  0  0  0  0  0  0  0
   47.6940   32.7780   41.9600 C   0  0  0  0  0  0  0  0  0  0  0  0
   47.8380   31.3930   42.1410 N   0  0  0  0  0  0  0  0  0  0  0  0
   48.7320   30.6810   41.4430 C   0  0  0  0  0  0  0  0  0  0  0  0
   49.5300   31.2550   40.5400 N   0  0  0  0  0  0  0  0  0  0  0  0
   48.4900   34.7460   40.7370 N   0  0  0  0  0  0  0  0  0  0  0  0
   43.5500   35.3930   40.5870 C   0  0  0  0  0  0  0  0  0  0  0  0
   42.3470   35.0050   39.9030 C   0  0  0  0  0  0  0  0  0  0  0  0
   41.9520   35.2690   38.6110 C   0  0  0  0  0  0  0  0  0  0  0  0
   40.7740   34.8600   38.0170 C   0  0  0  0  0  0  0  0  0  0  0  0
   39.9410   34.1230   38.8170 C   0  0  0  0  0  0  0  0  0  0  0  0
   40.3380   33.8600   40.1100 C   0  0  0  0  0  0  0  0  0  0  0  0
   41.4820   34.2700   40.6530 N   0  0  0  0  0  0  0  0  0  0  0  0
   39.3540   33.0500   40.8890 C   0  0  0  0  0  0  0  0  0  0  0  0
   38.0620   33.4930   40.6120 F   0  0  0  0  0  0  0  0  0  0  0  0
   39.6290   33.0190   42.2340 F   0  0  0  0  0  0  0  0  0  0  0  0
   39.3870   31.7300   40.4430 F   0  0  0  0  0  0  0  0  0  0  0  0
   38.3780   33.5400   38.1410 S   0  0  0  0  0  0  0  0  0  0  0  0
   38.5530   31.9360   37.3210 C   0  0  0  0  0  0  0  0  0  0  0  0
   42.6505   34.7379   42.3932 H   0  0  0  0  0  0  0  0  0  0  0  0
   43.4687   36.3507   42.4694 H   0  0  0  0  0  0  0  0  0  0  0  0
   47.5669   33.4139   44.7733 H   0  0  0  0  0  0  0  0  0  0  0  0
   50.0856   33.0268   39.5927 H   0  0  0  0  0  0  0  0  0  0  0  0
   48.8105   29.5978   41.6179 H   0  0  0  0  0  0  0  0  0  0  0  0
   47.8312   35.3653   41.2302 H   0  0  0  0  0  0  0  0  0  0  0  0
   49.1298   35.1339   40.0292 H   0  0  0  0  0  0  0  0  0  0  0  0
   43.7737   36.4323   40.3045 H   0  0  0  0  0  0  0  0  0  0  0  0
   44.3085   34.6592   40.2767 H   0  0  0  0  0  0  0  0  0  0  0  0
   42.6408   35.8628   37.9921 H   0  0  0  0  0  0  0  0  0  0  0  0
   40.5225   35.1084   36.9754 H   0  0  0  0  0  0  0  0  0  0  0  0
   38.6394   31.1440   38.0794 H   0  0  0  0  0  0  0  0  0  0  0  0
   37.6701   31.7472   36.6926 H   0  0  0  0  0  0  0  0  0  0  0  0
   39.4558   31.9420   36.6926 H   0  0  0  0  0  0  0  0  0  0  0  0
  1  5  1  0
  2  3  2  0
  3  4  1  0
  5  4  1  0
  6  5  2  0
  6  2  1  0
  7 12  2  0
  7  8  1  0
  8  9  2  0
  9 10  1  0
  9  2  1  0
 11 10  2  0
 12 11  1  0
 13  8  1  0
 14  1  1  0
 15 14  1  0
 15 20  1  0
 16 15  2  0
 17 16  1  0
 17 18  2  0
 18 19  1  0
 19 20  2  0
 19 21  1  0
 21 23  1  0
 22 21  1  0
 24 21  1  0
 25 18  1  0
 26 25  1  0
  1 27  1  0
  1 28  1  0
  3 29  1  0
  7 30  1  0
 11 31  1  0
 13 32  1  0
 13 33  1  0
 14 34  1  0
 14 35  1  0
 16 36  1  0
 17 37  1  0
 26 38  1  0
 26 39  1  0
 26 40  1  0
M  ISO  8  27   8  28   8  29  14  30  14  31  14  34   8  35   8  36  14
M  ISO  4  37  14  38   8  39   8  40   8
M  END
>  <minimizedAffinity>  (1) 
-5.44716311

>  <minimizedRMSD>  (1) 
0.150733188

$$$$
