
     RDKit          3D

 36 38  0  0  0  0  0  0  0  0999 V2000
   44.5240   35.6160   45.0400 C   0  0  0  0  0  0  0  0  0  0  0  0
   45.1550   35.6040   43.7820 C   0  0  0  0  0  0  0  0  0  0  0  0
   46.1150   34.6370   43.4720 C   0  0  0  0  0  0  0  0  0  0  0  0
   46.3970   33.7250   44.4430 N   0  0  0  0  0  0  0  0  0  0  0  0
   45.7810   33.7570   45.6380 C   0  0  0  0  0  0  0  0  0  0  0  0
   44.8640   34.6790   45.9370 N   0  0  0  0  0  0  0  0  0  0  0  0
   44.6720   33.0130   41.4890 Cl  0  0  0  0  0  0  0  0  0  0  0  0
   46.1860   33.8680   41.1730 C   0  0  0  0  0  0  0  0  0  0  0  0
   46.7840   34.6050   42.1710 C   0  0  0  0  0  0  0  0  0  0  0  0
   47.9590   35.2510   41.8760 C   0  0  0  0  0  0  0  0  0  0  0  0
   48.5270   35.1670   40.6140 C   0  0  0  0  0  0  0  0  0  0  0  0
   47.8800   34.4090   39.6470 C   0  0  0  0  0  0  0  0  0  0  0  0
   48.6020   34.3070   38.0560 Cl  0  0  0  0  0  0  0  0  0  0  0  0
   46.6990   33.7410   39.8880 C   0  0  0  0  0  0  0  0  0  0  0  0
   46.0830   32.7610   46.7090 C   0  0  0  0  0  0  0  0  0  0  0  0
   45.1250   32.8300   47.8550 C   0  0  0  0  0  0  0  0  0  0  0  0
   45.6950   32.0110   48.9950 C   0  0  0  0  0  0  0  0  0  0  0  0
   45.9810   30.6090   48.5210 C   0  0  0  0  0  0  0  0  0  0  0  0
   45.4840   30.3580   47.1240 C   0  0  0  0  0  0  0  0  0  0  0  0
   46.0670   31.3480   46.1660 C   0  0  0  0  0  0  0  0  0  0  0  0
   43.7682   36.3776   45.2822 H   0  0  0  0  0  0  0  0  0  0  0  0
   44.8892   36.3651   43.0336 H   0  0  0  0  0  0  0  0  0  0  0  0
   48.4587   35.8458   42.6548 H   0  0  0  0  0  0  0  0  0  0  0  0
   49.4679   35.6885   40.3842 H   0  0  0  0  0  0  0  0  0  0  0  0
   46.1948   33.1454   39.1127 H   0  0  0  0  0  0  0  0  0  0  0  0
   47.0880   33.0204   47.0734 H   0  0  0  0  0  0  0  0  0  0  0  0
   44.9993   33.8754   48.1734 H   0  0  0  0  0  0  0  0  0  0  0  0
   44.1433   32.4345   47.5553 H   0  0  0  0  0  0  0  0  0  0  0  0
   46.6279   32.4750   49.3477 H   0  0  0  0  0  0  0  0  0  0  0  0
   44.9657   31.9754   49.8177 H   0  0  0  0  0  0  0  0  0  0  0  0
   47.0684   30.4447   48.5429 H   0  0  0  0  0  0  0  0  0  0  0  0
   45.4523   29.9161   49.1921 H   0  0  0  0  0  0  0  0  0  0  0  0
   45.7746   29.3431   46.8149 H   0  0  0  0  0  0  0  0  0  0  0  0
   44.3890   30.4625   47.1156 H   0  0  0  0  0  0  0  0  0  0  0  0
   45.4700   31.3347   45.2422 H   0  0  0  0  0  0  0  0  0  0  0  0
   47.1115   31.0540   45.9855 H   0  0  0  0  0  0  0  0  0  0  0  0
  1  6  2  0
  2  1  1  0
  3  2  2  0
  3  4  1  0
  4  5  2  0
  5  6  1  0
  5 15  1  0
  8  7  1  0
  8  9  2  0
  9  3  1  0
 10  9  1  0
 11 10  2  0
 12 14  2  0
 12 11  1  0
 13 12  1  0
 14  8  1  0
 15 16  1  0
 16 17  1  0
 18 17  1  0
 19 18  1  0
 20 15  1  0
 20 19  1  0
  1 21  1  0
  2 22  1  0
 10 23  1  0
 11 24  1  0
 14 25  1  0
 15 26  1  0
 16 27  1  0
 16 28  1  0
 17 29  1  0
 17 30  1  0
 18 31  1  0
 18 32  1  0
 19 33  1  0
 19 34  1  0
 20 35  1  0
 20 36  1  0
M  ISO  8  21  14  22  14  23  14  24  14  25  14  26  13  27  13  28  13
M  ISO  8  29  13  30  13  31  13  32  13  33  13  34  13  35  13  36  13
M  END
>  <minimizedAffinity>  (1) 
-6.78039408

>  <minimizedRMSD>  (1) 
0.583952963

$$$$
