
     RDKit          3D

 22 23  0  0  0  0  0  0  0  0999 V2000
   44.5710   33.1510   41.3420 Cl  0  0  0  0  0  0  0  0  0  0  0  0
   46.1190   33.9130   41.0140 C   0  0  0  0  0  0  0  0  0  0  0  0
   46.7340   34.6720   41.9950 C   0  0  0  0  0  0  0  0  0  0  0  0
   47.9520   35.2550   41.7010 C   0  0  0  0  0  0  0  0  0  0  0  0
   48.5400   35.0870   40.4570 C   0  0  0  0  0  0  0  0  0  0  0  0
   47.8790   34.3170   39.5100 C   0  0  0  0  0  0  0  0  0  0  0  0
   48.6270   34.1100   37.9460 Cl  0  0  0  0  0  0  0  0  0  0  0  0
   46.6720   33.7190   39.7580 C   0  0  0  0  0  0  0  0  0  0  0  0
   44.4840   35.9440   44.7610 C   0  0  0  0  0  0  0  0  0  0  0  0
   45.1470   35.8310   43.5290 C   0  0  0  0  0  0  0  0  0  0  0  0
   46.0450   34.7940   43.2710 C   0  0  0  0  0  0  0  0  0  0  0  0
   46.2270   33.9140   44.2870 N   0  0  0  0  0  0  0  0  0  0  0  0
   45.5950   34.0200   45.4670 C   0  0  0  0  0  0  0  0  0  0  0  0
   44.7420   35.0190   45.6920 N   0  0  0  0  0  0  0  0  0  0  0  0
   45.8520   33.0270   46.5040 C   0  0  0  0  0  0  0  0  0  0  0  0
   45.1340   33.0060   47.5500 O   0  0  0  0  0  0  0  0  0  0  0  0
   48.4619   35.8607   42.4647 H   0  0  0  0  0  0  0  0  0  0  0  0
   49.5089   35.5535   40.2255 H   0  0  0  0  0  0  0  0  0  0  0  0
   46.1641   33.1117   38.9943 H   0  0  0  0  0  0  0  0  0  0  0  0
   43.7771   36.7644   44.9540 H   0  0  0  0  0  0  0  0  0  0  0  0
   44.9538   36.5793   42.7463 H   0  0  0  0  0  0  0  0  0  0  0  0
   46.6663   32.2980   46.3796 H   0  0  0  0  0  0  0  0  0  0  0  0
  2  1  1  0
  2  3  2  0
  3 11  1  0
  4  3  1  0
  5  4  2  0
  6  8  2  0
  6  5  1  0
  7  6  1  0
  8  2  1  0
  9 14  2  0
 10  9  1  0
 11 10  2  0
 11 12  1  0
 12 13  2  0
 13 14  1  0
 13 15  1  0
 15 16  2  0
  4 17  1  0
  5 18  1  0
  8 19  1  0
  9 20  1  0
 10 21  1  0
 15 22  1  0
M  ISO  6  17  14  18  14  19  14  20  14  21  14  22   6
M  END
>  <minimizedAffinity>  (1) 
-5.49238586

>  <minimizedRMSD>  (1) 
0.0442084335

$$$$
