
     RDKit          3D

 37 39  0  0  1  0  0  0  0  0999 V2000
   44.8300   34.9800   45.3310 C   0  0  0  0  0  0  0  0  0  0  0  0
   45.3910   35.1230   44.0570 C   0  0  0  0  0  0  0  0  0  0  0  0
   46.4200   34.2850   43.6120 C   0  0  0  0  0  0  0  0  0  0  0  0
   46.8450   33.3280   44.4790 N   0  0  0  0  0  0  0  0  0  0  0  0
   46.2980   33.2040   45.6930 C   0  0  0  0  0  0  0  0  0  0  0  0
   45.3090   34.0080   46.1260 N   0  0  0  0  0  0  0  0  0  0  0  0
   46.8500   32.1180   46.5650 C   0  0  2  0  0  0  0  0  0  0  0  0
   47.3130   30.9350   45.7390 C   0  0  0  0  0  0  0  0  0  0  0  0
   46.1500   29.9580   45.6470 C   0  0  0  0  0  0  0  0  0  0  0  0
   45.8390   29.3940   46.8630 O   0  0  0  0  0  0  0  0  0  0  0  0
   45.8890   30.2620   47.9330 C   0  0  0  0  0  0  0  0  0  0  0  0
   45.6870   31.6790   47.4360 C   0  0  1  0  0  0  0  0  0  0  0  0
   45.7050   32.5590   48.6730 C   0  0  0  0  0  0  0  0  0  0  0  0
   45.0010   32.6980   41.5790 Cl  0  0  0  0  0  0  0  0  0  0  0  0
   46.4080   33.7100   41.2430 C   0  0  0  0  0  0  0  0  0  0  0  0
   47.0100   34.4250   42.2770 C   0  0  0  0  0  0  0  0  0  0  0  0
   48.0960   35.1950   41.9720 C   0  0  0  0  0  0  0  0  0  0  0  0
   48.5860   35.2670   40.6760 C   0  0  0  0  0  0  0  0  0  0  0  0
   47.9370   34.5290   39.6950 C   0  0  0  0  0  0  0  0  0  0  0  0
   48.5580   34.6170   38.0440 Cl  0  0  0  0  0  0  0  0  0  0  0  0
   46.8460   33.7390   39.9410 C   0  0  0  0  0  0  0  0  0  0  0  0
   44.0212   35.6433   45.6715 H   0  0  0  0  0  0  0  0  0  0  0  0
   45.0145   35.9123   43.3898 H   0  0  0  0  0  0  0  0  0  0  0  0
   47.7146   32.4778   47.1420 H   0  0  0  0  0  0  0  0  0  0  0  0
   47.6024   31.2703   44.7321 H   0  0  0  0  0  0  0  0  0  0  0  0
   48.1861   30.4551   46.2052 H   0  0  0  0  0  0  0  0  0  0  0  0
   45.2668   30.4951   45.2709 H   0  0  0  0  0  0  0  0  0  0  0  0
   46.4484   29.1457   44.9680 H   0  0  0  0  0  0  0  0  0  0  0  0
   45.0951   30.0073   48.6506 H   0  0  0  0  0  0  0  0  0  0  0  0
   46.8675   30.1807   48.4290 H   0  0  0  0  0  0  0  0  0  0  0  0
   44.7557   31.7468   46.8546 H   0  0  0  0  0  0  0  0  0  0  0  0
   45.6921   31.9267   49.5730 H   0  0  0  0  0  0  0  0  0  0  0  0
   46.6159   33.1756   48.6711 H   0  0  0  0  0  0  0  0  0  0  0  0
   44.8200   33.2123   48.6711 H   0  0  0  0  0  0  0  0  0  0  0  0
   48.5915   35.7689   42.7689 H   0  0  0  0  0  0  0  0  0  0  0  0
   49.4604   35.8887   40.4334 H   0  0  0  0  0  0  0  0  0  0  0  0
   46.3507   33.1631   39.1453 H   0  0  0  0  0  0  0  0  0  0  0  0
  1  6  2  0
  2  1  1  0
  3  2  2  0
  3  4  1  0
  4  5  2  0
  5  6  1  0
  5  7  1  0
  7 12  1  0
  8  7  1  0
  9  8  1  0
  9 10  1  0
 10 11  1  0
 12 11  1  0
 12 13  1  0
 15 14  1  0
 15 16  2  0
 16  3  1  0
 17 16  1  0
 18 17  2  0
 19 21  2  0
 19 18  1  0
 20 19  1  0
 21 15  1  0
  1 22  1  0
  2 23  1  0
  7 24  1  1
  8 25  1  0
  8 26  1  0
  9 27  1  0
  9 28  1  0
 11 29  1  0
 11 30  1  0
 12 31  1  6
 13 32  1  0
 13 33  1  0
 13 34  1  0
 17 35  1  0
 18 36  1  0
 21 37  1  0
M  ISO  8  22  14  23  14  24  13  25  13  26  13  27  13  28  13  29  13
M  ISO  8  30  13  31  13  32   8  33   8  34   8  35  14  36  14  37  14
M  END
>  <minimizedAffinity>  (1) 
-6.26608849

>  <minimizedRMSD>  (1) 
0.693836689

$$$$
