
     RDKit          3D

 31 33  0  0  0  0  0  0  0  0999 V2000
   45.2630   33.2850   41.0990 F   0  0  0  0  0  0  0  0  0  0  0  0
   46.4470   33.9380   40.9620 C   0  0  0  0  0  0  0  0  0  0  0  0
   46.9130   34.7590   41.9350 C   0  0  0  0  0  0  0  0  0  0  0  0
   48.1030   35.4100   41.6900 C   0  0  0  0  0  0  0  0  0  0  0  0
   48.8050   35.2530   40.5220 C   0  0  0  0  0  0  0  0  0  0  0  0
   48.2720   34.4040   39.5880 C   0  0  0  0  0  0  0  0  0  0  0  0
   47.0960   33.7300   39.7750 C   0  0  0  0  0  0  0  0  0  0  0  0
   46.6550   32.8620   38.7120 C   0  0  0  0  0  0  0  0  0  0  0  0
   46.2310   31.5840   39.0040 C   0  0  0  0  0  0  0  0  0  0  0  0
   45.7890   30.7880   37.9840 C   0  0  0  0  0  0  0  0  0  0  0  0
   45.7610   31.2450   36.6640 C   0  0  0  0  0  0  0  0  0  0  0  0
   46.2030   32.5560   36.4110 C   0  0  0  0  0  0  0  0  0  0  0  0
   46.6470   33.3550   37.4400 C   0  0  0  0  0  0  0  0  0  0  0  0
   47.0150   34.5710   36.9390 O   0  0  0  0  0  0  0  0  0  0  0  0
   44.4930   36.0420   44.5420 C   0  0  0  0  0  0  0  0  0  0  0  0
   45.2290   35.9400   43.3580 C   0  0  0  0  0  0  0  0  0  0  0  0
   46.1270   34.8960   43.1670 C   0  0  0  0  0  0  0  0  0  0  0  0
   46.2270   34.0190   44.1810 N   0  0  0  0  0  0  0  0  0  0  0  0
   45.5160   34.1250   45.3110 C   0  0  0  0  0  0  0  0  0  0  0  0
   44.6550   35.1320   45.4890 N   0  0  0  0  0  0  0  0  0  0  0  0
   48.5058   36.0822   42.4619 H   0  0  0  0  0  0  0  0  0  0  0  0
   49.7517   35.7840   40.3436 H   0  0  0  0  0  0  0  0  0  0  0  0
   48.8153   34.2573   38.6429 H   0  0  0  0  0  0  0  0  0  0  0  0
   46.2478   31.2110   40.0387 H   0  0  0  0  0  0  0  0  0  0  0  0
   45.4483   29.7662   38.2073 H   0  0  0  0  0  0  0  0  0  0  0  0
   45.4043   30.5994   35.8479 H   0  0  0  0  0  0  0  0  0  0  0  0
   46.1938   32.9459   35.3825 H   0  0  0  0  0  0  0  0  0  0  0  0
   47.3607   35.2724   37.5461 H   0  0  0  0  0  0  0  0  0  0  0  0
   43.7851   36.8717   44.6853 H   0  0  0  0  0  0  0  0  0  0  0  0
   45.0962   36.6943   42.5685 H   0  0  0  0  0  0  0  0  0  0  0  0
   45.6423   33.3729   46.1037 H   0  0  0  0  0  0  0  0  0  0  0  0
  2  1  1  0
  2  3  2  0
  3 17  1  0
  4  3  1  0
  5  4  2  0
  6  7  2  0
  6  5  1  0
  7  2  1  0
  8  9  2  0
  8  7  1  0
 10  9  1  0
 11 10  2  0
 12 11  1  0
 12 13  2  0
 13  8  1  0
 14 13  1  0
 15 20  2  0
 16 15  1  0
 17 16  2  0
 17 18  1  0
 18 19  2  0
 19 20  1  0
  4 21  1  0
  5 22  1  0
  6 23  1  0
  9 24  1  0
 10 25  1  0
 11 26  1  0
 12 27  1  0
 14 28  1  0
 15 29  1  0
 16 30  1  0
 19 31  1  0
M  ISO  8  21  14  22  14  23  14  24  14  25  14  26  14  27  14  28   3
M  ISO  3  29  14  30  14  31  14
M  END
>  <minimizedAffinity>  (1) 
-6.19941664

>  <minimizedRMSD>  (1) 
0.630451441

$$$$
