
     RDKit          3D

 48 51  0  0  1  0  0  0  0  0999 V2000
   45.7800   32.6320   41.3220 F   0  0  0  0  0  0  0  0  0  0  0  0
   46.7440   33.5640   41.1440 C   0  0  0  0  0  0  0  0  0  0  0  0
   47.1840   34.3040   42.1850 C   0  0  0  0  0  0  0  0  0  0  0  0
   48.1750   35.2370   41.9150 C   0  0  0  0  0  0  0  0  0  0  0  0
   48.7000   35.4180   40.6600 C   0  0  0  0  0  0  0  0  0  0  0  0
   48.1990   34.6270   39.6620 C   0  0  0  0  0  0  0  0  0  0  0  0
   47.2290   33.6970   39.8640 C   0  0  0  0  0  0  0  0  0  0  0  0
   46.7790   32.9190   38.7300 C   0  0  0  0  0  0  0  0  0  0  0  0
   46.2120   31.6750   38.9320 C   0  0  0  0  0  0  0  0  0  0  0  0
   45.7940   30.9580   37.8540 C   0  0  0  0  0  0  0  0  0  0  0  0
   45.9310   31.4590   36.5580 C   0  0  0  0  0  0  0  0  0  0  0  0
   46.5120   32.7210   36.4080 C   0  0  0  0  0  0  0  0  0  0  0  0
   46.9350   33.4500   37.4930 C   0  0  0  0  0  0  0  0  0  0  0  0
   47.4650   34.6470   37.0860 O   0  0  0  0  0  0  0  0  0  0  0  0
   45.0340   34.5980   45.2770 C   0  0  0  0  0  0  0  0  0  0  0  0
   45.5580   34.8450   44.0070 C   0  0  0  0  0  0  0  0  0  0  0  0
   46.5990   34.0840   43.5140 C   0  0  0  0  0  0  0  0  0  0  0  0
   47.0620   33.1090   44.3330 N   0  0  0  0  0  0  0  0  0  0  0  0
   46.5500   32.8860   45.5460 C   0  0  0  0  0  0  0  0  0  0  0  0
   45.5360   33.6330   46.0140 N   0  0  0  0  0  0  0  0  0  0  0  0
   45.9910   30.7950   46.7580 C   0  0  2  0  0  0  0  0  0  0  0  0
   47.0680   31.8050   46.4420 C   0  0  2  0  0  0  0  0  0  0  0  0
   47.4630   32.3430   47.6740 O   0  0  0  0  0  0  0  0  0  0  0  0
   46.2960   32.7130   48.3440 C   0  0  0  0  0  0  0  0  0  0  0  0
   45.8720   31.4660   49.1240 C   0  0  2  0  0  0  0  0  0  0  0  0
   46.1250   30.2970   48.1890 C   0  0  1  0  0  0  0  0  0  0  0  0
   46.0520   29.6890   45.8980 O   0  0  0  0  0  0  0  0  0  0  0  0
   44.5360   31.6270   49.4300 O   0  0  0  0  0  0  0  0  0  0  0  0
   45.2320   29.2640   48.4060 O   0  0  0  0  0  0  0  0  0  0  0  0
   48.5552   35.8567   42.7404 H   0  0  0  0  0  0  0  0  0  0  0  0
   49.4856   36.1630   40.4657 H   0  0  0  0  0  0  0  0  0  0  0  0
   48.6015   34.7501   38.6457 H   0  0  0  0  0  0  0  0  0  0  0  0
   46.1004   31.2707   39.9489 H   0  0  0  0  0  0  0  0  0  0  0  0
   45.3407   29.9673   38.0059 H   0  0  0  0  0  0  0  0  0  0  0  0
   45.5934   30.8805   35.6855 H   0  0  0  0  0  0  0  0  0  0  0  0
   46.6334   33.1403   35.3983 H   0  0  0  0  0  0  0  0  0  0  0  0
   47.8149   35.2867   37.7557 H   0  0  0  0  0  0  0  0  0  0  0  0
   44.2034   35.2093   45.6596 H   0  0  0  0  0  0  0  0  0  0  0  0
   45.1370   35.6545   43.3926 H   0  0  0  0  0  0  0  0  0  0  0  0
   45.0261   31.3057   46.6230 H   0  0  0  0  0  0  0  0  0  0  0  0
   47.9084   31.3323   45.9126 H   0  0  0  0  0  0  0  0  0  0  0  0
   46.4935   33.5494   49.0306 H   0  0  0  0  0  0  0  0  0  0  0  0
   45.5122   33.0518   47.6505 H   0  0  0  0  0  0  0  0  0  0  0  0
   46.4177   31.2982   50.0643 H   0  0  0  0  0  0  0  0  0  0  0  0
   47.1351   29.9042   48.3773 H   0  0  0  0  0  0  0  0  0  0  0  0
   46.0979   28.8572   46.4329 H   0  0  0  0  0  0  0  0  0  0  0  0
   44.4220   31.6407   50.4133 H   0  0  0  0  0  0  0  0  0  0  0  0
   45.1147   29.1283   49.3796 H   0  0  0  0  0  0  0  0  0  0  0  0
  2  1  1  0
  2  3  2  0
  3 17  1  0
  4  3  1  0
  5  4  2  0
  6  7  2  0
  6  5  1  0
  7  2  1  0
  8  9  2  0
  8  7  1  0
 10  9  1  0
 11 10  2  0
 12 11  1  0
 12 13  2  0
 13  8  1  0
 14 13  1  0
 15 20  2  0
 16 15  1  0
 17 16  2  0
 17 18  1  0
 18 19  2  0
 19 20  1  0
 21 27  1  0
 21 26  1  0
 22 19  1  0
 22 21  1  0
 22 23  1  0
 23 24  1  0
 24 25  1  0
 25 28  1  0
 26 29  1  0
 26 25  1  0
  4 30  1  0
  5 31  1  0
  6 32  1  0
  9 33  1  0
 10 34  1  0
 11 35  1  0
 12 36  1  0
 14 37  1  0
 15 38  1  0
 16 39  1  0
 21 40  1  1
 22 41  1  6
 24 42  1  0
 24 43  1  0
 25 44  1  1
 26 45  1  6
 27 46  1  0
 28 47  1  0
 29 48  1  0
M  ISO  8  30  14  31  14  32  14  33  14  34  14  35  14  36  14  37   3
M  ISO  8  38  14  39  14  40  13  41  13  42  13  43  13  44  13  45  13
M  ISO  3  46   3  47   3  48   3
M  END
>  <minimizedAffinity>  (1) 
-7.92359114

>  <minimizedRMSD>  (1) 
1.53256416

$$$$
