
     RDKit          3D

 41 44  0  0  0  0  0  0  0  0999 V2000
   45.3520   33.1710   41.1580 F   0  0  0  0  0  0  0  0  0  0  0  0
   46.4880   33.9030   40.9960 C   0  0  0  0  0  0  0  0  0  0  0  0
   46.9410   34.7190   41.9700 C   0  0  0  0  0  0  0  0  0  0  0  0
   48.0930   35.4190   41.7190 C   0  0  0  0  0  0  0  0  0  0  0  0
   48.7780   35.3150   40.5410 C   0  0  0  0  0  0  0  0  0  0  0  0
   48.2630   34.4690   39.5930 C   0  0  0  0  0  0  0  0  0  0  0  0
   47.1270   33.7510   39.7840 C   0  0  0  0  0  0  0  0  0  0  0  0
   46.6790   32.8890   38.7120 C   0  0  0  0  0  0  0  0  0  0  0  0
   46.2540   31.6000   39.0000 C   0  0  0  0  0  0  0  0  0  0  0  0
   45.8330   30.7940   37.9910 C   0  0  0  0  0  0  0  0  0  0  0  0
   45.8250   31.2510   36.6700 C   0  0  0  0  0  0  0  0  0  0  0  0
   46.2620   32.5570   36.4340 C   0  0  0  0  0  0  0  0  0  0  0  0
   46.6860   33.3700   37.4470 C   0  0  0  0  0  0  0  0  0  0  0  0
   47.0620   34.5940   36.9650 O   0  0  0  0  0  0  0  0  0  0  0  0
   44.5370   35.8480   44.6720 C   0  0  0  0  0  0  0  0  0  0  0  0
   45.2450   35.8050   43.4690 C   0  0  0  0  0  0  0  0  0  0  0  0
   46.1720   34.8010   43.2260 C   0  0  0  0  0  0  0  0  0  0  0  0
   46.3250   33.9070   44.2130 N   0  0  0  0  0  0  0  0  0  0  0  0
   45.6470   33.9490   45.3630 C   0  0  0  0  0  0  0  0  0  0  0  0
   44.7590   34.9140   45.5900 N   0  0  0  0  0  0  0  0  0  0  0  0
   47.4810   31.6950   44.5420 Cl  0  0  0  0  0  0  0  0  0  0  0  0
   46.7120   31.8440   46.1030 C   0  0  0  0  0  0  0  0  0  0  0  0
   45.8760   32.9270   46.3910 C   0  0  0  0  0  0  0  0  0  0  0  0
   45.2780   33.0280   47.6260 C   0  0  0  0  0  0  0  0  0  0  0  0
   45.4830   32.0760   48.6050 C   0  0  0  0  0  0  0  0  0  0  0  0
   46.2960   30.9980   48.3650 C   0  0  0  0  0  0  0  0  0  0  0  0
   46.8860   30.9160   47.1150 C   0  0  0  0  0  0  0  0  0  0  0  0
   48.4817   36.0918   42.4976 H   0  0  0  0  0  0  0  0  0  0  0  0
   49.7016   35.8848   40.3614 H   0  0  0  0  0  0  0  0  0  0  0  0
   48.7940   34.3676   38.6350 H   0  0  0  0  0  0  0  0  0  0  0  0
   46.2580   31.2337   40.0372 H   0  0  0  0  0  0  0  0  0  0  0  0
   45.4950   29.7716   38.2156 H   0  0  0  0  0  0  0  0  0  0  0  0
   45.4868   30.6057   35.8459 H   0  0  0  0  0  0  0  0  0  0  0  0
   46.2648   32.9416   35.4034 H   0  0  0  0  0  0  0  0  0  0  0  0
   47.3929   35.2903   37.5862 H   0  0  0  0  0  0  0  0  0  0  0  0
   43.8035   36.6466   44.8573 H   0  0  0  0  0  0  0  0  0  0  0  0
   45.0659   36.5759   42.7050 H   0  0  0  0  0  0  0  0  0  0  0  0
   44.6225   33.8855   47.8381 H   0  0  0  0  0  0  0  0  0  0  0  0
   44.9913   32.1829   49.5832 H   0  0  0  0  0  0  0  0  0  0  0  0
   46.4720   30.2307   49.1333 H   0  0  0  0  0  0  0  0  0  0  0  0
   47.5381   30.0536   46.9123 H   0  0  0  0  0  0  0  0  0  0  0  0
  2  1  1  0
  2  3  2  0
  3 17  1  0
  4  3  1  0
  5  4  2  0
  6  7  2  0
  6  5  1  0
  7  2  1  0
  8  9  2  0
  8  7  1  0
 10  9  1  0
 11 10  2  0
 12 11  1  0
 12 13  2  0
 13  8  1  0
 14 13  1  0
 15 20  2  0
 16 15  1  0
 17 16  2  0
 17 18  1  0
 18 19  2  0
 19 20  1  0
 19 23  1  0
 21 22  1  0
 22 23  2  0
 22 27  1  0
 23 24  1  0
 24 25  2  0
 26 25  1  0
 27 26  2  0
  4 28  1  0
  5 29  1  0
  6 30  1  0
  9 31  1  0
 10 32  1  0
 11 33  1  0
 12 34  1  0
 14 35  1  0
 15 36  1  0
 16 37  1  0
 24 38  1  0
 25 39  1  0
 26 40  1  0
 27 41  1  0
M  ISO  8  28  14  29  14  30  14  31  14  32  14  33  14  34  14  35   3
M  ISO  6  36  14  37  14  38  14  39  14  40  14  41  14
M  END
>  <minimizedAffinity>  (1) 
-7.79366636

>  <minimizedRMSD>  (1) 
0.201167732

$$$$
