
     RDKit          3D

 41 44  0  0  1  0  0  0  0  0999 V2000
   48.0490   32.9650   41.6460 C   0  0  0  0  0  0  0  0  0  0  0  0
   48.4060   32.5930   40.2870 C   0  0  0  0  0  0  0  0  0  0  0  0
   49.6090   32.2320   39.9940 C   0  0  0  0  0  0  0  0  0  0  0  0
   49.9640   31.8570   38.6780 N   0  0  0  0  0  0  0  0  0  0  0  0
   50.6310   30.9050   37.8200 C   0  0  0  0  0  0  0  0  0  0  0  0
   51.6080   30.1090   37.9570 O   0  0  0  0  0  0  0  0  0  0  0  0
   49.6370   31.3230   36.7720 C   0  0  0  0  0  0  0  0  0  0  0  0
   49.5840   32.6540   37.4990 C   0  0  1  0  0  0  0  0  0  0  0  0
   47.9690   33.3780   37.7650 S   0  0  0  0  0  0  0  0  0  0  0  0
   47.3010   32.6610   39.2990 C   0  0  0  0  0  0  0  0  0  0  0  0
   50.6400   32.2060   41.0420 C   0  0  0  0  0  0  0  0  0  0  0  0
   51.8640   31.9330   40.8340 O   0  0  0  0  0  0  0  0  0  0  0  0
   51.3380   32.2620   42.1990 O   0  0  0  0  0  0  0  0  0  0  0  0
   47.2560   34.6240   41.6620 S   0  0  0  0  0  0  0  0  0  0  0  0
   44.5990   35.8000   44.4850 C   0  0  0  0  0  0  0  0  0  0  0  0
   45.3320   35.7540   43.2640 C   0  0  0  0  0  0  0  0  0  0  0  0
   46.3100   34.7340   43.1550 C   0  0  0  0  0  0  0  0  0  0  0  0
   46.4830   33.8870   44.1970 N   0  0  0  0  0  0  0  0  0  0  0  0
   45.7670   33.9760   45.3200 C   0  0  0  0  0  0  0  0  0  0  0  0
   44.8290   34.9180   45.4810 N   0  0  0  0  0  0  0  0  0  0  0  0
   44.2800   33.9400   47.7270 F   0  0  0  0  0  0  0  0  0  0  0  0
   45.2640   33.0370   47.5610 C   0  0  0  0  0  0  0  0  0  0  0  0
   46.0110   33.0240   46.4000 C   0  0  0  0  0  0  0  0  0  0  0  0
   47.0030   32.0700   46.3020 C   0  0  0  0  0  0  0  0  0  0  0  0
   47.3190   31.1300   47.2510 C   0  0  0  0  0  0  0  0  0  0  0  0
   46.5410   31.1750   48.4100 C   0  0  0  0  0  0  0  0  0  0  0  0
   45.5230   32.1110   48.5770 C   0  0  0  0  0  0  0  0  0  0  0  0
   48.9570   32.9902   42.2664 H   0  0  0  0  0  0  0  0  0  0  0  0
   47.3411   32.2246   42.0469 H   0  0  0  0  0  0  0  0  0  0  0  0
   48.6947   30.7556   36.7739 H   0  0  0  0  0  0  0  0  0  0  0  0
   49.8478   31.2469   35.6951 H   0  0  0  0  0  0  0  0  0  0  0  0
   50.1108   33.5301   37.0928 H   0  0  0  0  0  0  0  0  0  0  0  0
   46.4908   33.2959   39.6869 H   0  0  0  0  0  0  0  0  0  0  0  0
   46.8940   31.6570   39.1083 H   0  0  0  0  0  0  0  0  0  0  0  0
   52.3102   32.0751   42.2001 H   0  0  0  0  0  0  0  0  0  0  0  0
   43.8274   36.5724   44.6193 H   0  0  0  0  0  0  0  0  0  0  0  0
   45.1488   36.4711   42.4503 H   0  0  0  0  0  0  0  0  0  0  0  0
   47.5966   32.0620   45.3760 H   0  0  0  0  0  0  0  0  0  0  0  0
   48.1255   30.3955   47.1092 H   0  0  0  0  0  0  0  0  0  0  0  0
   46.7378   30.4505   49.2140 H   0  0  0  0  0  0  0  0  0  0  0  0
   44.9269   32.1219   49.5014 H   0  0  0  0  0  0  0  0  0  0  0  0
  1 14  1  0
  2  1  1  0
  3  2  2  0
  3 11  1  0
  4  3  1  0
  5  6  2  0
  5  4  1  0
  7  8  1  0
  7  5  1  0
  8  9  1  0
  8  4  1  0
  9 10  1  0
 10  2  1  0
 11 13  1  0
 12 11  2  0
 14 17  1  0
 15 20  2  0
 16 15  1  0
 17 16  2  0
 17 18  1  0
 18 19  2  0
 19 20  1  0
 19 23  1  0
 22 21  1  0
 22 27  2  0
 23 22  1  0
 24 23  2  0
 24 25  1  0
 25 26  2  0
 26 27  1  0
  1 28  1  0
  1 29  1  0
  7 30  1  0
  7 31  1  0
  8 32  1  6
 10 33  1  0
 10 34  1  0
 13 35  1  0
 15 36  1  0
 16 37  1  0
 24 38  1  0
 25 39  1  0
 26 40  1  0
 27 41  1  0
M  ISO  8  28   8  29   8  30  13  31  13  32  13  33  13  34  13  35   3
M  ISO  6  36  14  37  14  38  14  39  14  40  14  41  14
M  END
>  <minimizedAffinity>  (1) 
-6.22022343

>  <minimizedRMSD>  (1) 
0.264208943

$$$$
