
     RDKit          3D

 37 40  0  0  0  0  0  0  0  0999 V2000
   45.3630   33.1890   41.1410 F   0  0  0  0  0  0  0  0  0  0  0  0
   46.4920   33.9080   40.9770 C   0  0  0  0  0  0  0  0  0  0  0  0
   46.9510   34.7290   41.9510 C   0  0  0  0  0  0  0  0  0  0  0  0
   48.1140   35.4250   41.6920 C   0  0  0  0  0  0  0  0  0  0  0  0
   48.7950   35.3080   40.5100 C   0  0  0  0  0  0  0  0  0  0  0  0
   48.2720   34.4590   39.5700 C   0  0  0  0  0  0  0  0  0  0  0  0
   47.1330   33.7490   39.7670 C   0  0  0  0  0  0  0  0  0  0  0  0
   46.6760   32.8830   38.7020 C   0  0  0  0  0  0  0  0  0  0  0  0
   46.2530   31.5980   38.9990 C   0  0  0  0  0  0  0  0  0  0  0  0
   45.8210   30.7970   37.9800 C   0  0  0  0  0  0  0  0  0  0  0  0
   45.8020   31.2580   36.6560 C   0  0  0  0  0  0  0  0  0  0  0  0
   46.2400   32.5590   36.4220 C   0  0  0  0  0  0  0  0  0  0  0  0
   46.6770   33.3750   37.4350 C   0  0  0  0  0  0  0  0  0  0  0  0
   47.0500   34.5940   36.9440 O   0  0  0  0  0  0  0  0  0  0  0  0
   44.5210   35.8600   44.6260 C   0  0  0  0  0  0  0  0  0  0  0  0
   45.2360   35.7970   43.4270 C   0  0  0  0  0  0  0  0  0  0  0  0
   46.1830   34.8190   43.2050 C   0  0  0  0  0  0  0  0  0  0  0  0
   46.3650   33.9380   44.2160 N   0  0  0  0  0  0  0  0  0  0  0  0
   45.6770   34.0080   45.3570 C   0  0  0  0  0  0  0  0  0  0  0  0
   44.7670   34.9520   45.5640 N   0  0  0  0  0  0  0  0  0  0  0  0
   45.9370   33.0050   46.4150 C   0  0  0  0  0  0  0  0  0  0  0  0
   46.9650   32.0150   46.2910 C   0  0  0  0  0  0  0  0  0  0  0  0
   46.7700   31.1310   47.8640 S   0  0  0  0  0  0  0  0  0  0  0  0
   45.3400   32.2410   48.4250 C   0  0  0  0  0  0  0  0  0  0  0  0
   45.2180   32.9900   47.5270 N   0  0  0  0  0  0  0  0  0  0  0  0
   48.5094   36.1001   42.4653 H   0  0  0  0  0  0  0  0  0  0  0  0
   49.7214   35.8709   40.3231 H   0  0  0  0  0  0  0  0  0  0  0  0
   48.8002   34.3481   38.6115 H   0  0  0  0  0  0  0  0  0  0  0  0
   46.2646   31.2295   40.0354 H   0  0  0  0  0  0  0  0  0  0  0  0
   45.4827   29.7741   38.2018 H   0  0  0  0  0  0  0  0  0  0  0  0
   45.4542   30.6162   35.8331 H   0  0  0  0  0  0  0  0  0  0  0  0
   46.2355   32.9450   35.3920 H   0  0  0  0  0  0  0  0  0  0  0  0
   47.3888   35.2925   37.5583 H   0  0  0  0  0  0  0  0  0  0  0  0
   43.7692   36.6461   44.7899 H   0  0  0  0  0  0  0  0  0  0  0  0
   45.0394   36.5435   42.6433 H   0  0  0  0  0  0  0  0  0  0  0  0
   47.6756   31.8393   45.4699 H   0  0  0  0  0  0  0  0  0  0  0  0
   44.7649   32.1956   49.3616 H   0  0  0  0  0  0  0  0  0  0  0  0
  2  1  1  0
  2  3  2  0
  3 17  1  0
  4  3  1  0
  5  4  2  0
  6  7  2  0
  6  5  1  0
  7  2  1  0
  8  9  2  0
  8  7  1  0
 10  9  1  0
 11 10  2  0
 12 11  1  0
 12 13  2  0
 13  8  1  0
 14 13  1  0
 15 20  2  0
 16 15  1  0
 17 16  2  0
 17 18  1  0
 18 19  2  0
 19 20  1  0
 19 21  1  0
 21 25  1  0
 22 21  2  0
 22 23  1  0
 23 24  1  0
 25 24  2  0
  4 26  1  0
  5 27  1  0
  6 28  1  0
  9 29  1  0
 10 30  1  0
 11 31  1  0
 12 32  1  0
 14 33  1  0
 15 34  1  0
 16 35  1  0
 22 36  1  0
 24 37  1  0
M  ISO  8  26  14  27  14  28  14  29  14  30  14  31  14  32  14  33   3
M  ISO  4  34  14  35  14  36  14  37  14
M  END
>  <minimizedAffinity>  (1) 
-7.2585001

>  <minimizedRMSD>  (1) 
0.201157093

$$$$
