
     RDKit          3D

 44 47  0  0  0  0  0  0  0  0999 V2000
   45.4100   33.1010   41.1460 F   0  0  0  0  0  0  0  0  0  0  0  0
   46.5170   33.8560   40.9860 C   0  0  0  0  0  0  0  0  0  0  0  0
   46.9610   34.6810   41.9700 C   0  0  0  0  0  0  0  0  0  0  0  0
   48.0930   35.4130   41.7210 C   0  0  0  0  0  0  0  0  0  0  0  0
   48.7780   35.3390   40.5370 C   0  0  0  0  0  0  0  0  0  0  0  0
   48.2810   34.4890   39.5830 C   0  0  0  0  0  0  0  0  0  0  0  0
   47.1530   33.7330   39.7730 C   0  0  0  0  0  0  0  0  0  0  0  0
   46.7240   32.8740   38.6990 C   0  0  0  0  0  0  0  0  0  0  0  0
   46.3210   31.5860   38.9690 C   0  0  0  0  0  0  0  0  0  0  0  0
   45.9180   30.7900   37.9440 C   0  0  0  0  0  0  0  0  0  0  0  0
   45.9070   31.2560   36.6340 C   0  0  0  0  0  0  0  0  0  0  0  0
   46.3230   32.5690   36.4010 C   0  0  0  0  0  0  0  0  0  0  0  0
   46.7330   33.3840   37.4310 C   0  0  0  0  0  0  0  0  0  0  0  0
   47.0920   34.6180   36.9660 O   0  0  0  0  0  0  0  0  0  0  0  0
   44.6550   35.7830   44.7660 C   0  0  0  0  0  0  0  0  0  0  0  0
   45.3620   35.7820   43.5590 C   0  0  0  0  0  0  0  0  0  0  0  0
   46.1950   34.7300   43.2270 C   0  0  0  0  0  0  0  0  0  0  0  0
   46.2660   33.7360   44.1380 N   0  0  0  0  0  0  0  0  0  0  0  0
   45.5840   33.7480   45.2910 C   0  0  0  0  0  0  0  0  0  0  0  0
   44.7860   34.7710   45.5940 N   0  0  0  0  0  0  0  0  0  0  0  0
   45.7100   32.6140   46.2530 C   0  0  0  0  0  0  0  0  0  0  0  0
   47.1140   32.1870   46.5070 C   0  0  0  0  0  0  0  0  0  0  0  0
   47.3670   32.4620   47.9660 C   0  0  0  0  0  0  0  0  0  0  0  0
   45.9760   32.3860   48.5910 C   0  0  0  0  0  0  0  0  0  0  0  0
   45.1600   33.1260   47.5750 C   0  0  0  0  0  0  0  0  0  0  0  0
   48.4670   36.0881   42.5048 H   0  0  0  0  0  0  0  0  0  0  0  0
   49.6857   35.9346   40.3597 H   0  0  0  0  0  0  0  0  0  0  0  0
   48.8108   34.4100   38.6223 H   0  0  0  0  0  0  0  0  0  0  0  0
   46.3251   31.2058   40.0012 H   0  0  0  0  0  0  0  0  0  0  0  0
   45.5951   29.7597   38.1542 H   0  0  0  0  0  0  0  0  0  0  0  0
   45.5804   30.6099   35.8058 H   0  0  0  0  0  0  0  0  0  0  0  0
   46.3228   32.9595   35.3727 H   0  0  0  0  0  0  0  0  0  0  0  0
   47.4092   35.3117   37.5970 H   0  0  0  0  0  0  0  0  0  0  0  0
   43.9942   36.6248   45.0202 H   0  0  0  0  0  0  0  0  0  0  0  0
   45.2538   36.6289   42.8654 H   0  0  0  0  0  0  0  0  0  0  0  0
   45.1791   31.7482   45.8304 H   0  0  0  0  0  0  0  0  0  0  0  0
   47.2333   31.1147   46.2927 H   0  0  0  0  0  0  0  0  0  0  0  0
   47.8247   32.7262   45.8634 H   0  0  0  0  0  0  0  0  0  0  0  0
   48.0344   31.7024   48.3991 H   0  0  0  0  0  0  0  0  0  0  0  0
   47.8618   33.4290   48.1396 H   0  0  0  0  0  0  0  0  0  0  0  0
   45.6385   31.3446   48.6982 H   0  0  0  0  0  0  0  0  0  0  0  0
   45.9147   32.8003   49.6081 H   0  0  0  0  0  0  0  0  0  0  0  0
   45.3037   34.2126   47.6683 H   0  0  0  0  0  0  0  0  0  0  0  0
   44.0780   32.9619   47.6862 H   0  0  0  0  0  0  0  0  0  0  0  0
  2  1  1  0
  2  3  2  0
  3 17  1  0
  4  3  1  0
  5  4  2  0
  6  7  2  0
  6  5  1  0
  7  2  1  0
  8  9  2  0
  8  7  1  0
 10  9  1  0
 11 10  2  0
 12 11  1  0
 12 13  2  0
 13  8  1  0
 14 13  1  0
 15 20  2  0
 16 15  1  0
 17 16  2  0
 17 18  1  0
 18 19  2  0
 19 20  1  0
 19 21  1  0
 21 22  1  0
 21 25  1  0
 22 23  1  0
 23 24  1  0
 25 24  1  0
  4 26  1  0
  5 27  1  0
  6 28  1  0
  9 29  1  0
 10 30  1  0
 11 31  1  0
 12 32  1  0
 14 33  1  0
 15 34  1  0
 16 35  1  0
 21 36  1  0
 22 37  1  0
 22 38  1  0
 23 39  1  0
 23 40  1  0
 24 41  1  0
 24 42  1  0
 25 43  1  0
 25 44  1  0
M  ISO  8  26  14  27  14  28  14  29  14  30  14  31  14  32  14  33   3
M  ISO  8  34  14  35  14  36  13  37  13  38  13  39  13  40  13  41  13
M  ISO  3  42  13  43  13  44  13
M  END
>  <minimizedAffinity>  (1) 
-7.22869921

>  <minimizedRMSD>  (1) 
0.664402843

$$$$
