
     RDKit          3D

 37 39  0  0  0  0  0  0  0  0999 V2000
   45.8640   32.8790   40.9660 F   0  0  0  0  0  0  0  0  0  0  0  0
   46.8650   33.7590   40.7660 C   0  0  0  0  0  0  0  0  0  0  0  0
   47.1860   34.6790   41.7020 C   0  0  0  0  0  0  0  0  0  0  0  0
   48.2260   35.5410   41.4070 C   0  0  0  0  0  0  0  0  0  0  0  0
   48.9190   35.4870   40.2270 C   0  0  0  0  0  0  0  0  0  0  0  0
   48.5320   34.5260   39.3320 C   0  0  0  0  0  0  0  0  0  0  0  0
   47.5190   33.6500   39.5600 C   0  0  0  0  0  0  0  0  0  0  0  0
   47.2120   32.6840   38.5300 C   0  0  0  0  0  0  0  0  0  0  0  0
   47.3530   31.3330   38.7960 C   0  0  0  0  0  0  0  0  0  0  0  0
   47.0600   30.4310   37.8240 C   0  0  0  0  0  0  0  0  0  0  0  0
   46.6200   30.8510   36.5650 C   0  0  0  0  0  0  0  0  0  0  0  0
   46.4950   32.2250   36.3480 C   0  0  0  0  0  0  0  0  0  0  0  0
   46.7880   33.1390   37.3230 C   0  0  0  0  0  0  0  0  0  0  0  0
   46.5870   34.4140   36.8680 O   0  0  0  0  0  0  0  0  0  0  0  0
   44.7030   35.5830   44.3930 C   0  0  0  0  0  0  0  0  0  0  0  0
   45.4000   35.6060   43.1890 C   0  0  0  0  0  0  0  0  0  0  0  0
   46.4160   34.7020   42.9550 C   0  0  0  0  0  0  0  0  0  0  0  0
   46.6730   33.8250   43.9540 N   0  0  0  0  0  0  0  0  0  0  0  0
   45.9920   33.8190   45.1040 C   0  0  0  0  0  0  0  0  0  0  0  0
   45.0030   34.7040   45.3230 N   0  0  0  0  0  0  0  0  0  0  0  0
   46.4150   32.8490   45.9780 O   0  0  0  0  0  0  0  0  0  0  0  0
   46.6970   32.3680   48.5150 O   0  0  0  0  0  0  0  0  0  0  0  0
   45.6400   32.4490   47.4380 P   0  0  0  0  0  0  0  0  0  0  0  0
   44.8860   30.9330   47.3440 O   0  0  0  0  0  0  0  0  0  0  0  0
   44.4800   33.5660   47.9140 O   0  0  0  0  0  0  0  0  0  0  0  0
   48.5083   36.3011   42.1503 H   0  0  0  0  0  0  0  0  0  0  0  0
   49.7446   36.1805   40.0094 H   0  0  0  0  0  0  0  0  0  0  0  0
   49.0711   34.4595   38.3755 H   0  0  0  0  0  0  0  0  0  0  0  0
   47.6985   30.9937   39.7837 H   0  0  0  0  0  0  0  0  0  0  0  0
   47.1702   29.3561   38.0298 H   0  0  0  0  0  0  0  0  0  0  0  0
   46.3809   30.1252   35.7738 H   0  0  0  0  0  0  0  0  0  0  0  0
   46.1515   32.5822   35.3660 H   0  0  0  0  0  0  0  0  0  0  0  0
   46.7583   35.1852   37.4646 H   0  0  0  0  0  0  0  0  0  0  0  0
   43.8936   36.3070   44.5681 H   0  0  0  0  0  0  0  0  0  0  0  0
   45.1399   36.3483   42.4200 H   0  0  0  0  0  0  0  0  0  0  0  0
   44.7162   30.5917   48.2577 H   0  0  0  0  0  0  0  0  0  0  0  0
   44.4426   33.6020   48.9026 H   0  0  0  0  0  0  0  0  0  0  0  0
  2  1  1  0
  2  3  2  0
  3 17  1  0
  4  3  1  0
  5  4  2  0
  6  7  2  0
  6  5  1  0
  7  2  1  0
  8  9  2  0
  8  7  1  0
 10  9  1  0
 11 10  2  0
 12 11  1  0
 12 13  2  0
 13  8  1  0
 14 13  1  0
 15 20  2  0
 16 15  1  0
 17 16  2  0
 17 18  1  0
 18 19  2  0
 19 20  1  0
 19 21  1  0
 21 23  1  0
 23 25  1  0
 23 22  2  0
 24 23  1  0
  4 26  1  0
  5 27  1  0
  6 28  1  0
  9 29  1  0
 10 30  1  0
 11 31  1  0
 12 32  1  0
 14 33  1  0
 15 34  1  0
 16 35  1  0
 24 36  1  0
 25 37  1  0
M  ISO  8  26  14  27  14  28  14  29  14  30  14  31  14  32  14  33   3
M  ISO  4  34  14  35  14  36   3  37   3
M  END
>  <minimizedAffinity>  (1) 
-6.85133982

>  <minimizedRMSD>  (1) 
0.755358577

$$$$
