
     RDKit          3D

 23 24  0  0  0  0  0  0  0  0999 V2000
   46.9460   32.4750   45.7030 C   0  0  0  0  0  0  0  0  0  0  0  0
   44.5720   35.3360   45.3390 C   0  0  0  0  0  0  0  0  0  0  0  0
   44.8380   35.7640   44.0350 C   0  0  0  0  0  0  0  0  0  0  0  0
   45.8090   35.0780   43.3160 C   0  0  0  0  0  0  0  0  0  0  0  0
   46.4570   34.0310   43.8930 N   0  0  0  0  0  0  0  0  0  0  0  0
   46.1710   33.6370   45.1770 C   0  0  0  0  0  0  0  0  0  0  0  0
   45.2300   34.3070   45.8650 N   0  0  0  0  0  0  0  0  0  0  0  0
   45.4370   29.7590   45.1280 Br  0  0  0  0  0  0  0  0  0  0  0  0
   45.5890   30.6440   46.8330 C   0  0  0  0  0  0  0  0  0  0  0  0
   46.2970   31.8260   46.8440 C   0  0  0  0  0  0  0  0  0  0  0  0
   46.3800   32.4310   48.1030 C   0  0  0  0  0  0  0  0  0  0  0  0
   45.8100   31.9070   49.2440 C   0  0  0  0  0  0  0  0  0  0  0  0
   45.1190   30.7250   49.1500 C   0  0  0  0  0  0  0  0  0  0  0  0
   44.9950   30.0680   47.9350 C   0  0  0  0  0  0  0  0  0  0  0  0
   47.9385   32.8291   46.0186 H   0  0  0  0  0  0  0  0  0  0  0  0
   47.0142   31.7312   44.8954 H   0  0  0  0  0  0  0  0  0  0  0  0
   43.8095   35.8565   45.9370 H   0  0  0  0  0  0  0  0  0  0  0  0
   44.2974   36.6142   43.5936 H   0  0  0  0  0  0  0  0  0  0  0  0
   46.0520   35.3799   42.2865 H   0  0  0  0  0  0  0  0  0  0  0  0
   46.9316   33.3790   48.1873 H   0  0  0  0  0  0  0  0  0  0  0  0
   45.9071   32.4255   50.2093 H   0  0  0  0  0  0  0  0  0  0  0  0
   44.6574   30.2930   50.0502 H   0  0  0  0  0  0  0  0  0  0  0  0
   44.4420   29.1206   47.8538 H   0  0  0  0  0  0  0  0  0  0  0  0
  1 10  1  0
  2  7  2  0
  3  2  1  0
  4  5  1  0
  4  3  2  0
  5  6  2  0
  6  1  1  0
  6  7  1  0
  8  9  1  0
  9 10  2  0
  9 14  1  0
 10 11  1  0
 11 12  2  0
 13 12  1  0
 14 13  2  0
  1 15  1  0
  1 16  1  0
  2 17  1  0
  3 18  1  0
  4 19  1  0
 11 20  1  0
 12 21  1  0
 13 22  1  0
 14 23  1  0
M  ISO  8  15   8  16   8  17  14  18  14  19  14  20  14  21  14  22  14
M  ISO  1  23  14
M  END
>  <minimizedAffinity>  (1) 
-4.75204945

>  <minimizedRMSD>  (1) 
2.08634973

$$$$
