
     RDKit          3D

 41 44  0  0  1  0  0  0  0  0999 V2000
   50.1820   32.2300   41.7670 C   0  0  0  0  0  0  0  0  0  0  0  0
   49.9450   31.9330   40.3670 C   0  0  0  0  0  0  0  0  0  0  0  0
   50.9130   31.5360   39.6000 C   0  0  0  0  0  0  0  0  0  0  0  0
   50.7130   31.2270   38.2400 N   0  0  0  0  0  0  0  0  0  0  0  0
   50.9370   30.3090   37.1550 C   0  0  0  0  0  0  0  0  0  0  0  0
   51.8290   29.4590   36.8680 O   0  0  0  0  0  0  0  0  0  0  0  0
   49.6440   30.8590   36.5950 C   0  0  0  0  0  0  0  0  0  0  0  0
   49.9540   32.1290   37.3410 C   0  0  1  0  0  0  0  0  0  0  0  0
   48.6050   32.8760   38.2490 S   0  0  0  0  0  0  0  0  0  0  0  0
   48.5520   32.1120   39.8960 C   0  0  0  0  0  0  0  0  0  0  0  0
   52.2680   31.4010   40.1620 C   0  0  0  0  0  0  0  0  0  0  0  0
   53.3450   31.3830   39.4830 O   0  0  0  0  0  0  0  0  0  0  0  0
   53.3550   31.2660   40.9590 O   0  0  0  0  0  0  0  0  0  0  0  0
   49.9080   34.0250   42.0840 S   0  0  0  0  0  0  0  0  0  0  0  0
   46.0020   35.0360   42.4440 C   0  0  0  0  0  0  0  0  0  0  0  0
   47.3150   34.9250   41.9190 C   0  0  0  0  0  0  0  0  0  0  0  0
   48.2490   34.1920   42.7020 C   0  0  0  0  0  0  0  0  0  0  0  0
   47.8470   33.6510   43.8770 N   0  0  0  0  0  0  0  0  0  0  0  0
   46.5980   33.7850   44.3270 C   0  0  0  0  0  0  0  0  0  0  0  0
   45.6670   34.4710   43.6250 N   0  0  0  0  0  0  0  0  0  0  0  0
   44.5810   35.2480   45.8750 Cl  0  0  0  0  0  0  0  0  0  0  0  0
   45.3350   33.7680   46.4200 C   0  0  0  0  0  0  0  0  0  0  0  0
   46.2780   33.1620   45.6010 C   0  0  0  0  0  0  0  0  0  0  0  0
   46.9020   32.0080   45.9670 C   0  0  0  0  0  0  0  0  0  0  0  0
   46.5550   31.4680   47.1870 C   0  0  0  0  0  0  0  0  0  0  0  0
   45.6260   32.0520   48.0080 C   0  0  0  0  0  0  0  0  0  0  0  0
   45.2170   31.3390   49.5370 Cl  0  0  0  0  0  0  0  0  0  0  0  0
   45.0040   33.2190   47.6250 C   0  0  0  0  0  0  0  0  0  0  0  0
   51.2189   31.9684   42.0247 H   0  0  0  0  0  0  0  0  0  0  0  0
   49.4856   31.6433   42.3841 H   0  0  0  0  0  0  0  0  0  0  0  0
   49.6228   30.9613   35.5000 H   0  0  0  0  0  0  0  0  0  0  0  0
   48.6860   30.3318   36.7142 H   0  0  0  0  0  0  0  0  0  0  0  0
   50.3371   33.0142   36.8122 H   0  0  0  0  0  0  0  0  0  0  0  0
   48.0043   32.7645   40.5919 H   0  0  0  0  0  0  0  0  0  0  0  0
   48.0387   31.1403   39.8483 H   0  0  0  0  0  0  0  0  0  0  0  0
   54.2606   31.2355   40.5601 H   0  0  0  0  0  0  0  0  0  0  0  0
   45.2409   35.5934   41.8783 H   0  0  0  0  0  0  0  0  0  0  0  0
   47.5957   35.3812   40.9582 H   0  0  0  0  0  0  0  0  0  0  0  0
   47.6495   31.5283   45.3181 H   0  0  0  0  0  0  0  0  0  0  0  0
   47.0405   30.5362   47.5127 H   0  0  0  0  0  0  0  0  0  0  0  0
   44.2573   33.6981   48.2753 H   0  0  0  0  0  0  0  0  0  0  0  0
  1 14  1  0
  2  1  1  0
  3 11  1  0
  3  2  2  0
  4  3  1  0
  5  4  1  0
  6  5  2  0
  7  5  1  0
  7  8  1  0
  8  4  1  0
  8  9  1  0
  9 10  1  0
 10  2  1  0
 11 13  1  0
 12 11  2  0
 14 17  1  0
 15 20  2  0
 16 15  1  0
 16 17  2  0
 17 18  1  0
 18 19  2  0
 19 23  1  0
 20 19  1  0
 21 22  1  0
 22 28  2  0
 23 24  2  0
 23 22  1  0
 24 25  1  0
 25 26  2  0
 26 27  1  0
 28 26  1  0
  1 29  1  0
  1 30  1  0
  7 31  1  0
  7 32  1  0
  8 33  1  6
 10 34  1  0
 10 35  1  0
 13 36  1  0
 15 37  1  0
 16 38  1  0
 24 39  1  0
 25 40  1  0
 28 41  1  0
M  ISO  8  29   8  30   8  31  13  32  13  33  13  34  13  35  13  36   3
M  ISO  5  37  14  38  14  39  14  40  14  41  14
M  END
>  <minimizedAffinity>  (1) 
-6.04994488

>  <minimizedRMSD>  (1) 
1.85688686

$$$$
