
     RDKit          3D

 17 17  0  0  0  0  0  0  0  0999 V2000
   44.5460   35.9530   44.5690 C   0  0  0  0  0  0  0  0  0  0  0  0
   45.2790   35.7390   43.3940 C   0  0  0  0  0  0  0  0  0  0  0  0
   46.1300   34.6420   43.3540 C   0  0  0  0  0  0  0  0  0  0  0  0
   46.2150   33.8340   44.4370 N   0  0  0  0  0  0  0  0  0  0  0  0
   45.4990   34.0580   45.5610 C   0  0  0  0  0  0  0  0  0  0  0  0
   44.6730   35.1240   45.5990 N   0  0  0  0  0  0  0  0  0  0  0  0
   45.6730   33.0990   46.6870 C   0  0  0  0  0  0  0  0  0  0  0  0
   47.5270   32.3640   48.1200 C   0  0  0  0  0  0  0  0  0  0  0  0
   46.6380   31.7700   48.7920 O   0  0  0  0  0  0  0  0  0  0  0  0
   47.1020   33.1090   46.9640 N   0  0  0  0  0  0  0  0  0  0  0  0
   43.8621   36.8117   44.6387 H   0  0  0  0  0  0  0  0  0  0  0  0
   45.1837   36.4166   42.5328 H   0  0  0  0  0  0  0  0  0  0  0  0
   46.7271   34.4325   42.4542 H   0  0  0  0  0  0  0  0  0  0  0  0
   45.1047   33.4292   47.5690 H   0  0  0  0  0  0  0  0  0  0  0  0
   45.3047   32.0930   46.4373 H   0  0  0  0  0  0  0  0  0  0  0  0
   48.5876   32.3139   48.4076 H   0  0  0  0  0  0  0  0  0  0  0  0
   47.7696   33.6190   46.3681 H   0  0  0  0  0  0  0  0  0  0  0  0
  1  6  2  0
  2  1  1  0
  3  2  2  0
  3  4  1  0
  4  5  2  0
  5  6  1  0
  5  7  1  0
  7 10  1  0
  8  9  2  0
 10  8  1  0
  1 11  1  0
  2 12  1  0
  3 13  1  0
  7 14  1  0
  7 15  1  0
  8 16  1  0
 10 17  1  0
M  ISO  6  11  14  12  14  13  14  14   8  15   8  16   6
M  END
>  <minimizedAffinity>  (1) 
-4.01368189

>  <minimizedRMSD>  (1) 
0.42360723

$$$$
