
     RDKit          3D

 23 24  0  0  0  0  0  0  0  0999 V2000
   46.8500   32.5730   47.2930 C   0  0  0  0  0  0  0  0  0  0  0  0
   46.6670   33.6030   43.7110 C   0  0  0  0  0  0  0  0  0  0  0  0
   45.5920   34.4900   43.7250 C   0  0  0  0  0  0  0  0  0  0  0  0
   44.9530   34.7160   44.9580 C   0  0  0  0  0  0  0  0  0  0  0  0
   45.4110   34.0640   46.0730 N   0  0  0  0  0  0  0  0  0  0  0  0
   46.4650   33.2100   45.9980 C   0  0  0  0  0  0  0  0  0  0  0  0
   47.0810   32.9860   44.8330 N   0  0  0  0  0  0  0  0  0  0  0  0
   46.4990   31.1500   47.3210 C   0  0  0  0  0  0  0  0  0  0  0  0
   47.5420   30.2650   47.1720 C   0  0  0  0  0  0  0  0  0  0  0  0
   47.3500   28.8980   47.1800 C   0  0  0  0  0  0  0  0  0  0  0  0
   46.0780   28.3880   47.3430 C   0  0  0  0  0  0  0  0  0  0  0  0
   44.9910   29.2530   47.4980 C   0  0  0  0  0  0  0  0  0  0  0  0
   45.2380   30.6110   47.4830 C   0  0  0  0  0  0  0  0  0  0  0  0
   46.3257   33.0860   48.1127 H   0  0  0  0  0  0  0  0  0  0  0  0
   47.9405   32.6602   47.4080 H   0  0  0  0  0  0  0  0  0  0  0  0
   47.1879   33.4031   42.7630 H   0  0  0  0  0  0  0  0  0  0  0  0
   45.2559   34.9942   42.8070 H   0  0  0  0  0  0  0  0  0  0  0  0
   44.0987   35.4056   45.0260 H   0  0  0  0  0  0  0  0  0  0  0  0
   48.5608   30.6591   47.0424 H   0  0  0  0  0  0  0  0  0  0  0  0
   48.2064   28.2187   47.0571 H   0  0  0  0  0  0  0  0  0  0  0  0
   45.9194   27.2995   47.3509 H   0  0  0  0  0  0  0  0  0  0  0  0
   43.9705   28.8636   47.6279 H   0  0  0  0  0  0  0  0  0  0  0  0
   44.3879   31.2981   47.6062 H   0  0  0  0  0  0  0  0  0  0  0  0
  1  8  1  0
  2  3  2  0
  2  7  1  0
  3  4  1  0
  4  5  2  0
  6  5  1  0
  6  1  1  0
  7  6  2  0
  8 13  2  0
  9 10  2  0
  9  8  1  0
 10 11  1  0
 11 12  2  0
 13 12  1  0
  1 14  1  0
  1 15  1  0
  2 16  1  0
  3 17  1  0
  4 18  1  0
  9 19  1  0
 10 20  1  0
 11 21  1  0
 12 22  1  0
 13 23  1  0
M  ISO  8  14   8  15   8  16  14  17  14  18  14  19  14  20  14  21  14
M  ISO  2  22  14  23  14
M  END
>  <minimizedAffinity>  (1) 
-3.6710844

>  <minimizedRMSD>  (1) 
3.70623946

$$$$
