
     RDKit          3D

 14 14  0  0  0  0  0  0  0  0999 V2000
   44.5000   36.0180   44.5070 C   0  0  0  0  0  0  0  0  0  0  0  0
   45.1540   35.9690   43.2760 C   0  0  0  0  0  0  0  0  0  0  0  0
   46.0670   34.9420   43.0760 C   0  0  0  0  0  0  0  0  0  0  0  0
   46.2880   34.0380   44.0660 N   0  0  0  0  0  0  0  0  0  0  0  0
   45.6340   34.1200   45.2490 C   0  0  0  0  0  0  0  0  0  0  0  0
   44.7490   35.1120   45.4450 N   0  0  0  0  0  0  0  0  0  0  0  0
   45.9580   33.0710   46.2640 C   0  0  0  0  0  0  0  0  0  0  0  0
   45.4910   31.8640   45.7020 O   0  0  0  0  0  0  0  0  0  0  0  0
   43.7694   36.8166   44.7030 H   0  0  0  0  0  0  0  0  0  0  0  0
   44.9541   36.7156   42.4933 H   0  0  0  0  0  0  0  0  0  0  0  0
   46.6081   34.8608   42.1217 H   0  0  0  0  0  0  0  0  0  0  0  0
   47.0432   33.0226   46.4374 H   0  0  0  0  0  0  0  0  0  0  0  0
   45.4929   33.2807   47.2385 H   0  0  0  0  0  0  0  0  0  0  0  0
   45.2476   31.2350   46.4267 H   0  0  0  0  0  0  0  0  0  0  0  0
  1  6  2  0
  2  1  1  0
  3  2  2  0
  3  4  1  0
  4  5  2  0
  5  6  1  0
  5  7  1  0
  8  7  1  0
  1  9  1  0
  2 10  1  0
  3 11  1  0
  7 12  1  0
  7 13  1  0
  8 14  1  0
M  ISO  6   9  14  10  14  11  14  12   8  13   8  14   3
M  END
>  <minimizedAffinity>  (1) 
-3.24247384

>  <minimizedRMSD>  (1) 
0.177885234

$$$$
