
     RDKit          3D

 21 22  0  0  0  0  0  0  0  0999 V2000
   46.0880   31.3550   45.0870 C   0  0  0  0  0  0  0  0  0  0  0  0
   45.4340   34.6400   43.4530 C   0  0  0  0  0  0  0  0  0  0  0  0
   46.6800   34.9390   42.8910 C   0  0  0  0  0  0  0  0  0  0  0  0
   47.7120   34.0100   43.0850 C   0  0  0  0  0  0  0  0  0  0  0  0
   47.4530   32.8840   43.7970 N   0  0  0  0  0  0  0  0  0  0  0  0
   46.2310   32.6280   44.3280 C   0  0  0  0  0  0  0  0  0  0  0  0
   45.2440   33.5210   44.1400 N   0  0  0  0  0  0  0  0  0  0  0  0
   46.8880   31.3690   46.3230 C   0  0  0  0  0  0  0  0  0  0  0  0
   47.6760   30.2580   46.6470 C   0  0  0  0  0  0  0  0  0  0  0  0
   48.4580   30.2040   47.7980 C   0  0  0  0  0  0  0  0  0  0  0  0
   48.4250   31.2820   48.6030 N   0  0  0  0  0  0  0  0  0  0  0  0
   47.6750   32.3810   48.3260 C   0  0  0  0  0  0  0  0  0  0  0  0
   46.9410   32.3720   47.1980 N   0  0  0  0  0  0  0  0  0  0  0  0
   46.4247   30.5215   44.4531 H   0  0  0  0  0  0  0  0  0  0  0  0
   45.0299   31.2356   45.3630 H   0  0  0  0  0  0  0  0  0  0  0  0
   44.5987   35.3439   43.3232 H   0  0  0  0  0  0  0  0  0  0  0  0
   46.8432   35.8651   42.3203 H   0  0  0  0  0  0  0  0  0  0  0  0
   48.7136   34.1905   42.6676 H   0  0  0  0  0  0  0  0  0  0  0  0
   47.6775   29.3942   45.9659 H   0  0  0  0  0  0  0  0  0  0  0  0
   49.0724   29.3236   48.0374 H   0  0  0  0  0  0  0  0  0  0  0  0
   47.6681   33.2492   49.0014 H   0  0  0  0  0  0  0  0  0  0  0  0
  1  8  1  0
  2  7  2  0
  3  4  2  0
  3  2  1  0
  4  5  1  0
  5  6  2  0
  6  1  1  0
  7  6  1  0
  8  9  2  0
  8 13  1  0
  9 10  1  0
 10 11  2  0
 12 11  1  0
 13 12  2  0
  1 14  1  0
  1 15  1  0
  2 16  1  0
  3 17  1  0
  4 18  1  0
  9 19  1  0
 10 20  1  0
 12 21  1  0
M  ISO  8  14   8  15   8  16  14  17  14  18  14  19  14  20  14  21  14
M  END
>  <minimizedAffinity>  (1) 
-3.21995211

>  <minimizedRMSD>  (1) 
2.25803304

$$$$
