
     RDKit          3D

 27 28  0  0  0  0  0  0  0  0999 V2000
   46.7580   31.5390   46.3140 C   0  0  0  0  0  0  0  0  0  0  0  0
   46.6010   31.7260   44.9710 C   0  0  0  0  0  0  0  0  0  0  0  0
   45.8810   30.7740   44.2630 C   0  0  0  0  0  0  0  0  0  0  0  0
   45.3120   29.6410   44.8460 C   0  0  0  0  0  0  0  0  0  0  0  0
   45.4930   29.4810   46.2220 C   0  0  0  0  0  0  0  0  0  0  0  0
   46.2050   30.4270   46.9120 C   0  0  0  0  0  0  0  0  0  0  0  0
   47.1600   32.8920   44.2420 C   0  0  0  0  0  0  0  0  0  0  0  0
   44.6100   35.3940   45.2630 C   0  0  0  0  0  0  0  0  0  0  0  0
   44.5430   36.2190   44.1510 C   0  0  0  0  0  0  0  0  0  0  0  0
   45.3770   35.8910   43.0830 C   0  0  0  0  0  0  0  0  0  0  0  0
   46.2000   34.8250   43.1410 N   0  0  0  0  0  0  0  0  0  0  0  0
   46.2280   34.0370   44.2700 C   0  0  0  0  0  0  0  0  0  0  0  0
   45.4240   34.3550   45.2960 N   0  0  0  0  0  0  0  0  0  0  0  0
   47.4650   32.4580   47.0520 O   0  0  0  0  0  0  0  0  0  0  0  0
   46.3710   30.2420   48.2830 O   0  0  0  0  0  0  0  0  0  0  0  0
   45.2980   30.6030   49.0970 C   0  0  0  0  0  0  0  0  0  0  0  0
   45.1360   31.6130   49.8430 O   0  0  0  0  0  0  0  0  0  0  0  0
   45.7514   30.9209   43.1806 H   0  0  0  0  0  0  0  0  0  0  0  0
   44.7476   28.9085   44.2503 H   0  0  0  0  0  0  0  0  0  0  0  0
   45.0706   28.6094   46.7434 H   0  0  0  0  0  0  0  0  0  0  0  0
   47.3453   32.6059   43.1962 H   0  0  0  0  0  0  0  0  0  0  0  0
   48.0966   33.1935   44.7338 H   0  0  0  0  0  0  0  0  0  0  0  0
   43.9733   35.6089   46.1339 H   0  0  0  0  0  0  0  0  0  0  0  0
   43.8676   37.0864   44.1133 H   0  0  0  0  0  0  0  0  0  0  0  0
   45.3632   36.5136   42.1763 H   0  0  0  0  0  0  0  0  0  0  0  0
   47.8568   33.2522   46.6095 H   0  0  0  0  0  0  0  0  0  0  0  0
   44.4557   29.8955   49.0898 H   0  0  0  0  0  0  0  0  0  0  0  0
  1  6  2  0
  1 14  1  0
  2  1  1  0
  3  4  1  0
  3  2  2  0
  4  5  2  0
  5  6  1  0
  6 15  1  0
  7 12  1  0
  7  2  1  0
  8 13  2  0
  9  8  1  0
 10 11  1  0
 10  9  2  0
 11 12  2  0
 12 13  1  0
 15 16  1  0
 16 17  2  0
  3 18  1  0
  4 19  1  0
  5 20  1  0
  7 21  1  0
  7 22  1  0
  8 23  1  0
  9 24  1  0
 10 25  1  0
 14 26  1  0
 16 27  1  0
M  ISO  8  18  14  19  14  20  14  21   8  22   8  23  14  24  14  25  14
M  ISO  2  26   3  27   6
M  END
>  <minimizedAffinity>  (1) 
-4.40600872

>  <minimizedRMSD>  (1) 
2.29942083

$$$$
