
     RDKit          3D

 38 41  0  0  1  0  0  0  0  0999 V2000
   48.3280   32.1510   40.9600 C   0  0  0  0  0  0  0  0  0  0  0  0
   49.5870   32.2300   40.6850 C   0  0  0  0  0  0  0  0  0  0  0  0
   50.1000   31.8490   39.4300 N   0  0  0  0  0  0  0  0  0  0  0  0
   51.1100   31.1120   38.7110 C   0  0  0  0  0  0  0  0  0  0  0  0
   52.3120   30.7610   38.9400 O   0  0  0  0  0  0  0  0  0  0  0  0
   50.0630   30.9880   37.6260 C   0  0  0  0  0  0  0  0  0  0  0  0
   49.4890   32.2850   38.1650 C   0  0  1  0  0  0  0  0  0  0  0  0
   47.7110   32.3580   38.3620 S   0  0  0  0  0  0  0  0  0  0  0  0
   47.3070   31.6560   39.9920 C   0  0  0  0  0  0  0  0  0  0  0  0
   47.8180   32.5480   42.2590 C   0  0  0  0  0  0  0  0  0  0  0  0
   46.9390   34.1650   42.1320 S   0  0  0  0  0  0  0  0  0  0  0  0
   44.5000   35.6520   45.0100 C   0  0  0  0  0  0  0  0  0  0  0  0
   45.1750   35.4870   43.7720 C   0  0  0  0  0  0  0  0  0  0  0  0
   46.0800   34.3990   43.6640 C   0  0  0  0  0  0  0  0  0  0  0  0
   46.2450   33.5910   44.7430 N   0  0  0  0  0  0  0  0  0  0  0  0
   45.5860   33.7950   45.8810 C   0  0  0  0  0  0  0  0  0  0  0  0
   44.7200   34.8030   46.0390 N   0  0  0  0  0  0  0  0  0  0  0  0
   45.8280   32.8710   46.9890 C   0  0  0  0  0  0  0  0  0  0  0  0
   45.0340   32.6440   48.0820 C   0  0  0  0  0  0  0  0  0  0  0  0
   45.4300   31.7340   49.0230 C   0  0  0  0  0  0  0  0  0  0  0  0
   46.6400   31.0580   48.8420 C   0  0  0  0  0  0  0  0  0  0  0  0
   47.2670   31.7590   47.2220 S   0  0  0  0  0  0  0  0  0  0  0  0
   50.5070   32.7300   41.7110 C   0  0  0  0  0  0  0  0  0  0  0  0
   51.2120   31.9920   42.4830 O   0  0  0  0  0  0  0  0  0  0  0  0
   51.2680   33.4850   42.5630 O   0  0  0  0  0  0  0  0  0  0  0  0
   49.4008   30.1146   37.7192 H   0  0  0  0  0  0  0  0  0  0  0  0
   50.3270   30.8573   36.5662 H   0  0  0  0  0  0  0  0  0  0  0  0
   49.6597   33.2357   37.6387 H   0  0  0  0  0  0  0  0  0  0  0  0
   46.3043   31.9836   40.3037 H   0  0  0  0  0  0  0  0  0  0  0  0
   47.3125   30.5567   39.9521 H   0  0  0  0  0  0  0  0  0  0  0  0
   47.1182   31.7818   42.6242 H   0  0  0  0  0  0  0  0  0  0  0  0
   48.6604   32.6516   42.9587 H   0  0  0  0  0  0  0  0  0  0  0  0
   43.7885   36.4817   45.1337 H   0  0  0  0  0  0  0  0  0  0  0  0
   45.0036   36.1745   42.9306 H   0  0  0  0  0  0  0  0  0  0  0  0
   44.0860   33.1890   48.2018 H   0  0  0  0  0  0  0  0  0  0  0  0
   44.8066   31.5373   49.9077 H   0  0  0  0  0  0  0  0  0  0  0  0
   47.1078   30.3021   49.4899 H   0  0  0  0  0  0  0  0  0  0  0  0
   51.8630   33.0427   43.2191 H   0  0  0  0  0  0  0  0  0  0  0  0
  1 10  1  0
  2  1  2  0
  2 23  1  0
  3  2  1  0
  4  5  2  0
  4  3  1  0
  6  7  1  0
  6  4  1  0
  7  8  1  0
  7  3  1  0
  8  9  1  0
  9  1  1  0
 11 10  1  0
 11 14  1  0
 12 17  2  0
 13 12  1  0
 14 13  2  0
 14 15  1  0
 15 16  2  0
 16 17  1  0
 16 18  1  0
 18 22  1  0
 18 19  2  0
 19 20  1  0
 21 20  2  0
 22 21  1  0
 23 24  2  0
 23 25  1  0
  6 26  1  0
  6 27  1  0
  7 28  1  6
  9 29  1  0
  9 30  1  0
 10 31  1  0
 10 32  1  0
 12 33  1  0
 13 34  1  0
 19 35  1  0
 20 36  1  0
 21 37  1  0
 25 38  1  0
M  ISO  8  26  13  27  13  28  13  29  13  30  13  31   8  32   8  33  14
M  ISO  5  34  14  35  14  36  14  37  14  38   3
M  END
>  <minimizedAffinity>  (1) 
-5.71964407

>  <minimizedRMSD>  (1) 
0.845843494

$$$$
