
     RDKit          3D

 42 45  0  0  0  0  0  0  0  0999 V2000
   42.6790   35.0870   41.8170 C   0  0  0  0  0  0  0  0  0  0  0  0
   41.8040   34.6190   40.8600 C   0  0  0  0  0  0  0  0  0  0  0  0
   42.3220   34.0120   39.7520 C   0  0  0  0  0  0  0  0  0  0  0  0
   43.6760   33.8290   39.5210 C   0  0  0  0  0  0  0  0  0  0  0  0
   44.5560   34.3020   40.4900 C   0  0  0  0  0  0  0  0  0  0  0  0
   44.0320   34.9200   41.6160 C   0  0  0  0  0  0  0  0  0  0  0  0
   40.3360   34.7600   41.0030 C   0  0  0  0  0  0  0  0  0  0  0  0
   38.4400   32.2200   39.0980 C   0  0  0  0  0  0  0  0  0  0  0  0
   38.2630   32.8560   37.8660 C   0  0  0  0  0  0  0  0  0  0  0  0
   38.7940   34.1310   37.7150 C   0  0  0  0  0  0  0  0  0  0  0  0
   39.4430   34.6820   38.7550 N   0  0  0  0  0  0  0  0  0  0  0  0
   39.6050   34.0520   39.9410 C   0  0  0  0  0  0  0  0  0  0  0  0
   39.0980   32.8290   40.0910 N   0  0  0  0  0  0  0  0  0  0  0  0
   42.2130   35.7060   42.9510 O   0  0  0  0  0  0  0  0  0  0  0  0
   44.9280   35.3810   42.5590 O   0  0  0  0  0  0  0  0  0  0  0  0
   45.7800   34.4610   43.1580 C   0  0  0  0  0  0  0  0  0  0  0  0
   45.1820   33.5750   44.0650 C   0  0  0  0  0  0  0  0  0  0  0  0
   45.9790   32.6370   44.6920 C   0  0  0  0  0  0  0  0  0  0  0  0
   47.3380   32.5770   44.4290 C   0  0  0  0  0  0  0  0  0  0  0  0
   47.8700   33.4810   43.5230 C   0  0  0  0  0  0  0  0  0  0  0  0
   47.1370   34.4520   42.8510 C   0  0  0  0  0  0  0  0  0  0  0  0
   47.7660   35.3880   41.9220 C   0  0  0  0  0  0  0  0  0  0  0  0
   48.4720   35.0680   40.6950 C   0  0  0  0  0  0  0  0  0  0  0  0
   49.2840   35.3990   41.9450 C   0  0  0  0  0  0  0  0  0  0  0  0
   41.6173   33.6436   38.9919 H   0  0  0  0  0  0  0  0  0  0  0  0
   44.0400   33.3309   38.6102 H   0  0  0  0  0  0  0  0  0  0  0  0
   45.6430   34.1883   40.3657 H   0  0  0  0  0  0  0  0  0  0  0  0
   40.0335   34.3478   41.9770 H   0  0  0  0  0  0  0  0  0  0  0  0
   40.0900   35.8295   40.9278 H   0  0  0  0  0  0  0  0  0  0  0  0
   38.0345   31.2092   39.2526 H   0  0  0  0  0  0  0  0  0  0  0  0
   37.7219   32.3640   37.0443 H   0  0  0  0  0  0  0  0  0  0  0  0
   38.6857   34.6769   36.7662 H   0  0  0  0  0  0  0  0  0  0  0  0
   42.8509   36.0381   43.6314 H   0  0  0  0  0  0  0  0  0  0  0  0
   44.1030   33.6256   44.2726 H   0  0  0  0  0  0  0  0  0  0  0  0
   45.5306   31.9312   45.4067 H   0  0  0  0  0  0  0  0  0  0  0  0
   47.9773   31.8323   44.9257 H   0  0  0  0  0  0  0  0  0  0  0  0
   48.9500   33.4260   43.3213 H   0  0  0  0  0  0  0  0  0  0  0  0
   46.9193   36.0727   42.0779 H   0  0  0  0  0  0  0  0  0  0  0  0
   48.4581   34.0380   40.3092 H   0  0  0  0  0  0  0  0  0  0  0  0
   48.4464   35.4587   39.6670 H   0  0  0  0  0  0  0  0  0  0  0  0
   49.8344   36.3486   42.0180 H   0  0  0  0  0  0  0  0  0  0  0  0
   50.0742   34.9092   42.5330 H   0  0  0  0  0  0  0  0  0  0  0  0
  1 14  1  0
  2  7  1  0
  2  1  2  0
  3  2  1  0
  4  3  2  0
  4  5  1  0
  5  6  2  0
  6  1  1  0
  6 15  1  0
  8 13  2  0
  9  8  1  0
 10  9  2  0
 10 11  1  0
 11 12  2  0
 12 13  1  0
 12  7  1  0
 15 16  1  0
 16 17  2  0
 17 18  1  0
 19 18  2  0
 20 19  1  0
 21 16  1  0
 21 20  2  0
 22 24  1  0
 22 21  1  0
 23 22  1  0
 23 24  1  0
  3 25  1  0
  4 26  1  0
  5 27  1  0
  7 28  1  0
  7 29  1  0
  8 30  1  0
  9 31  1  0
 10 32  1  0
 14 33  1  0
 17 34  1  0
 18 35  1  0
 19 36  1  0
 20 37  1  0
 22 38  1  0
 23 39  1  0
 23 40  1  0
 24 41  1  0
 24 42  1  0
M  ISO  8  25  14  26  14  27  14  28   8  29   8  30  14  31  14  32  14
M  ISO  8  33   3  34  14  35  14  36  14  37  14  38  13  39  13  40  13
M  ISO  2  41  13  42  13
M  END
>  <minimizedAffinity>  (1) 
-6.66379166

>  <minimizedRMSD>  (1) 
2.22979283

$$$$
