
     RDKit          3D

 50 53  0  0  0  0  0  0  0  0999 V2000
   43.6130   35.2630   42.2560 C   0  0  0  0  0  0  0  0  0  0  0  0
   42.5570   35.0850   41.4090 C   0  0  0  0  0  0  0  0  0  0  0  0
   42.7960   34.5250   40.1730 C   0  0  0  0  0  0  0  0  0  0  0  0
   44.0490   34.1270   39.7300 C   0  0  0  0  0  0  0  0  0  0  0  0
   45.1160   34.3100   40.5930 C   0  0  0  0  0  0  0  0  0  0  0  0
   44.8760   34.8740   41.8410 C   0  0  0  0  0  0  0  0  0  0  0  0
   41.1790   35.4690   41.7690 C   0  0  0  0  0  0  0  0  0  0  0  0
   39.0360   32.5040   41.2680 C   0  0  0  0  0  0  0  0  0  0  0  0
   38.2690   32.8910   40.1630 C   0  0  0  0  0  0  0  0  0  0  0  0
   38.5060   34.1520   39.6210 C   0  0  0  0  0  0  0  0  0  0  0  0
   39.4430   34.9270   40.1730 N   0  0  0  0  0  0  0  0  0  0  0  0
   40.1730   34.5390   41.2380 C   0  0  0  0  0  0  0  0  0  0  0  0
   39.9520   33.3420   41.7580 N   0  0  0  0  0  0  0  0  0  0  0  0
   43.4320   35.8150   43.4980 O   0  0  0  0  0  0  0  0  0  0  0  0
   45.9670   35.0440   42.6820 O   0  0  0  0  0  0  0  0  0  0  0  0
   46.5640   33.9010   43.2120 C   0  0  0  0  0  0  0  0  0  0  0  0
   46.0770   33.4500   44.4240 C   0  0  0  0  0  0  0  0  0  0  0  0
   46.6430   32.3170   44.9850 C   0  0  0  0  0  0  0  0  0  0  0  0
   47.6790   31.6460   44.3410 C   0  0  0  0  0  0  0  0  0  0  0  0
   48.1300   32.1490   43.1160 C   0  0  0  0  0  0  0  0  0  0  0  0
   47.5800   33.2670   42.5520 C   0  0  0  0  0  0  0  0  0  0  0  0
   49.1920   31.4190   42.5070 N   0  0  0  0  0  0  0  0  0  0  0  0
   49.7450   31.9370   41.2690 C   0  0  0  0  0  0  0  0  0  0  0  0
   51.2010   32.2900   41.5950 C   0  0  0  0  0  0  0  0  0  0  0  0
   51.8340   31.0720   41.8940 O   0  0  0  0  0  0  0  0  0  0  0  0
   51.3330   30.6040   43.1050 C   0  0  0  0  0  0  0  0  0  0  0  0
   49.8710   30.1770   42.9110 C   0  0  0  0  0  0  0  0  0  0  0  0
   48.0730   33.7310   41.3140 N   0  0  0  0  0  0  0  0  0  0  0  0
   41.9406   34.3849   39.4958 H   0  0  0  0  0  0  0  0  0  0  0  0
   44.1891   33.6838   38.7330 H   0  0  0  0  0  0  0  0  0  0  0  0
   46.1336   34.0150   40.2972 H   0  0  0  0  0  0  0  0  0  0  0  0
   41.0948   35.4897   42.8656 H   0  0  0  0  0  0  0  0  0  0  0  0
   40.9836   36.4570   41.3267 H   0  0  0  0  0  0  0  0  0  0  0  0
   38.8850   31.5168   41.7291 H   0  0  0  0  0  0  0  0  0  0  0  0
   37.5058   32.2227   39.7376 H   0  0  0  0  0  0  0  0  0  0  0  0
   37.9305   34.5039   38.7521 H   0  0  0  0  0  0  0  0  0  0  0  0
   44.2063   35.9385   44.1024 H   0  0  0  0  0  0  0  0  0  0  0  0
   45.2576   33.9793   44.9323 H   0  0  0  0  0  0  0  0  0  0  0  0
   46.2698   31.9433   45.9499 H   0  0  0  0  0  0  0  0  0  0  0  0
   48.1303   30.7455   44.7830 H   0  0  0  0  0  0  0  0  0  0  0  0
   49.1942   32.8326   40.9456 H   0  0  0  0  0  0  0  0  0  0  0  0
   49.6729   31.2068   40.4495 H   0  0  0  0  0  0  0  0  0  0  0  0
   51.6818   32.7688   40.7292 H   0  0  0  0  0  0  0  0  0  0  0  0
   51.2671   32.9968   42.4352 H   0  0  0  0  0  0  0  0  0  0  0  0
   51.9274   29.7416   43.4411 H   0  0  0  0  0  0  0  0  0  0  0  0
   51.3899   31.3996   43.8625 H   0  0  0  0  0  0  0  0  0  0  0  0
   49.4490   29.7872   43.8491 H   0  0  0  0  0  0  0  0  0  0  0  0
   49.7583   29.3710   42.1710 H   0  0  0  0  0  0  0  0  0  0  0  0
   47.6662   34.5720   40.8802 H   0  0  0  0  0  0  0  0  0  0  0  0
   48.8397   33.2288   40.8441 H   0  0  0  0  0  0  0  0  0  0  0  0
  1 14  1  0
  2  7  1  0
  2  1  2  0
  3  2  1  0
  4  3  2  0
  4  5  1  0
  5  6  2  0
  6  1  1  0
  6 15  1  0
  8 13  2  0
  9  8  1  0
 10  9  2  0
 10 11  1  0
 11 12  2  0
 12 13  1  0
 12  7  1  0
 15 16  1  0
 16 17  2  0
 17 18  1  0
 19 18  2  0
 20 19  1  0
 21 20  2  0
 21 16  1  0
 22 27  1  0
 22 20  1  0
 23 24  1  0
 23 22  1  0
 24 25  1  0
 25 26  1  0
 27 26  1  0
 28 21  1  0
  3 29  1  0
  4 30  1  0
  5 31  1  0
  7 32  1  0
  7 33  1  0
  8 34  1  0
  9 35  1  0
 10 36  1  0
 14 37  1  0
 17 38  1  0
 18 39  1  0
 19 40  1  0
 23 41  1  0
 23 42  1  0
 24 43  1  0
 24 44  1  0
 26 45  1  0
 26 46  1  0
 27 47  1  0
 27 48  1  0
 28 49  1  0
 28 50  1  0
M  ISO  8  29  14  30  14  31  14  32   8  33   8  34  14  35  14  36  14
M  ISO  8  37   3  38  14  39  14  40  14  41  13  42  13  43  13  44  13
M  ISO  4  45  13  46  13  47  13  48  13
M  END
>  <minimizedAffinity>  (1) 
-6.2101469

>  <minimizedRMSD>  (1) 
1.83176243

$$$$
