
     RDKit          3D

 33 34  0  0  0  0  0  0  0  0999 V2000
   46.9840   32.6900   44.8850 C   0  0  0  0  0  0  0  0  0  0  0  0
   46.5020   34.5110   43.3050 C   0  0  0  0  0  0  0  0  0  0  0  0
   46.2260   33.8880   44.5120 C   0  0  0  0  0  0  0  0  0  0  0  0
   45.2780   34.3340   45.3850 C   0  0  0  0  0  0  0  0  0  0  0  0
   44.5570   35.4570   45.0510 C   0  0  0  0  0  0  0  0  0  0  0  0
   44.7590   36.1290   43.8920 C   0  0  0  0  0  0  0  0  0  0  0  0
   45.7380   35.6270   43.0450 C   0  0  0  0  0  0  0  0  0  0  0  0
   47.6990   33.9760   42.1720 S   0  0  0  0  0  0  0  0  0  0  0  0
   49.0980   34.4580   42.5400 O   0  0  0  0  0  0  0  0  0  0  0  0
   47.4330   34.6380   40.8270 O   0  0  0  0  0  0  0  0  0  0  0  0
   46.2110   31.6760   45.6920 C   0  0  0  0  0  0  0  0  0  0  0  0
   47.4040   32.2440   47.8060 C   0  0  0  0  0  0  0  0  0  0  0  0
   47.0520   31.2880   46.8270 C   0  0  0  0  0  0  0  0  0  0  0  0
   47.5450   30.0020   47.0090 C   0  0  0  0  0  0  0  0  0  0  0  0
   48.3190   29.7340   48.0880 N   0  0  0  0  0  0  0  0  0  0  0  0
   48.6250   30.6730   48.9890 C   0  0  0  0  0  0  0  0  0  0  0  0
   48.1770   31.9170   48.8570 N   0  0  0  0  0  0  0  0  0  0  0  0
   49.4840   30.2950   50.1510 C   0  0  0  0  0  0  0  0  0  0  0  0
   50.6140   31.6890   50.4870 S   0  0  0  0  0  0  0  0  0  0  0  0
   47.8545   33.0071   45.4780 H   0  0  0  0  0  0  0  0  0  0  0  0
   47.2575   32.1918   43.9432 H   0  0  0  0  0  0  0  0  0  0  0  0
   45.0942   33.8083   46.3336 H   0  0  0  0  0  0  0  0  0  0  0  0
   43.7896   35.8222   45.7494 H   0  0  0  0  0  0  0  0  0  0  0  0
   44.1771   37.0265   43.6352 H   0  0  0  0  0  0  0  0  0  0  0  0
   45.9161   36.1587   42.0986 H   0  0  0  0  0  0  0  0  0  0  0  0
   47.6318   32.6077   42.1568 H   0  0  0  0  0  0  0  0  0  0  0  0
   45.2720   32.1201   46.0540 H   0  0  0  0  0  0  0  0  0  0  0  0
   45.9594   30.7995   45.0768 H   0  0  0  0  0  0  0  0  0  0  0  0
   47.0384   33.2767   47.7066 H   0  0  0  0  0  0  0  0  0  0  0  0
   47.3092   29.2091   46.2840 H   0  0  0  0  0  0  0  0  0  0  0  0
   48.8560   30.1014   51.0332 H   0  0  0  0  0  0  0  0  0  0  0  0
   50.0558   29.3828   49.9253 H   0  0  0  0  0  0  0  0  0  0  0  0
   50.7470   31.8530   51.8406 H   0  0  0  0  0  0  0  0  0  0  0  0
  1 11  1  0
  2  3  2  0
  3  1  1  0
  3  4  1  0
  5  4  2  0
  6  5  1  0
  7  2  1  0
  7  6  2  0
  8  9  2  0
  8  2  1  0
 10  8  2  0
 11 13  1  0
 12 17  2  0
 13 14  2  0
 13 12  1  0
 14 15  1  0
 15 16  2  0
 16 18  1  0
 17 16  1  0
 18 19  1  0
  1 20  1  0
  1 21  1  0
  4 22  1  0
  5 23  1  0
  6 24  1  0
  7 25  1  0
  8 26  1  0
 11 27  1  0
 11 28  1  0
 12 29  1  0
 14 30  1  0
 18 31  1  0
 18 32  1  0
 19 33  1  0
M  ISO  8  20   8  21   8  22  14  23  14  24  14  25  14  26  11  27   8
M  ISO  6  28   8  29  14  30  14  31   8  32   8  33  11
M  END
>  <minimizedAffinity>  (1) 
-5.05727148

>  <minimizedRMSD>  (1) 
0.338649392

$$$$
