
     RDKit          3D

 33 35  0  0  1  0  0  0  0  0999 V2000
   48.3070   32.6850   40.5340 C   0  0  0  0  0  0  0  0  0  0  0  0
   49.5040   32.3020   40.2060 C   0  0  0  0  0  0  0  0  0  0  0  0
   49.7880   31.8430   38.9050 N   0  0  0  0  0  0  0  0  0  0  0  0
   50.4070   30.8200   38.0890 C   0  0  0  0  0  0  0  0  0  0  0  0
   51.3790   30.0160   38.2340 O   0  0  0  0  0  0  0  0  0  0  0  0
   49.3690   31.1900   37.0650 C   0  0  0  0  0  0  0  0  0  0  0  0
   49.3640   32.5640   37.7000 C   0  0  1  0  0  0  0  0  0  0  0  0
   47.7570   33.3030   37.9950 S   0  0  0  0  0  0  0  0  0  0  0  0
   47.1600   32.6950   39.6060 C   0  0  0  0  0  0  0  0  0  0  0  0
   48.0340   33.1420   41.8940 C   0  0  0  0  0  0  0  0  0  0  0  0
   47.0730   34.7040   41.8380 S   0  0  0  0  0  0  0  0  0  0  0  0
   44.4960   35.9010   44.7260 C   0  0  0  0  0  0  0  0  0  0  0  0
   45.2110   35.8620   43.4930 C   0  0  0  0  0  0  0  0  0  0  0  0
   46.1520   34.8050   43.3510 C   0  0  0  0  0  0  0  0  0  0  0  0
   46.3100   33.9200   44.3700 N   0  0  0  0  0  0  0  0  0  0  0  0
   45.6070   34.0150   45.4990 C   0  0  0  0  0  0  0  0  0  0  0  0
   44.7080   34.9880   45.6860 N   0  0  0  0  0  0  0  0  0  0  0  0
   45.8130   33.0390   46.5650 C   0  0  0  0  0  0  0  0  0  0  0  0
   45.0910   33.0270   47.5960 O   0  0  0  0  0  0  0  0  0  0  0  0
   50.5850   32.3450   41.2060 C   0  0  0  0  0  0  0  0  0  0  0  0
   51.7800   31.9910   40.9850 O   0  0  0  0  0  0  0  0  0  0  0  0
   51.3460   32.4950   42.3070 O   0  0  0  0  0  0  0  0  0  0  0  0
   48.4206   30.6389   37.1480 H   0  0  0  0  0  0  0  0  0  0  0  0
   49.5299   31.0426   35.9869 H   0  0  0  0  0  0  0  0  0  0  0  0
   49.8795   33.4068   37.2164 H   0  0  0  0  0  0  0  0  0  0  0  0
   46.3732   33.3611   39.9898 H   0  0  0  0  0  0  0  0  0  0  0  0
   46.7376   31.6844   39.5042 H   0  0  0  0  0  0  0  0  0  0  0  0
   47.4546   32.3748   42.4285 H   0  0  0  0  0  0  0  0  0  0  0  0
   48.9851   33.3172   42.4181 H   0  0  0  0  0  0  0  0  0  0  0  0
   43.7549   36.6964   44.8937 H   0  0  0  0  0  0  0  0  0  0  0  0
   45.0448   36.6050   42.6991 H   0  0  0  0  0  0  0  0  0  0  0  0
   46.6183   32.2964   46.4648 H   0  0  0  0  0  0  0  0  0  0  0  0
   52.3067   32.2573   42.2809 H   0  0  0  0  0  0  0  0  0  0  0  0
  1 10  1  0
  2  1  2  0
  2 20  1  0
  3  2  1  0
  4  5  2  0
  4  3  1  0
  6  7  1  0
  6  4  1  0
  7  8  1  0
  7  3  1  0
  8  9  1  0
  9  1  1  0
 11 10  1  0
 11 14  1  0
 12 17  2  0
 13 12  1  0
 14 13  2  0
 14 15  1  0
 15 16  2  0
 16 17  1  0
 16 18  1  0
 18 19  2  0
 20 22  1  0
 21 20  2  0
  6 23  1  0
  6 24  1  0
  7 25  1  6
  9 26  1  0
  9 27  1  0
 10 28  1  0
 10 29  1  0
 12 30  1  0
 13 31  1  0
 18 32  1  0
 22 33  1  0
M  ISO  8  23  13  24  13  25  13  26  13  27  13  28   8  29   8  30  14
M  ISO  3  31  14  32   6  33   3
M  END
>  <minimizedAffinity>  (1) 
-4.90694904

>  <minimizedRMSD>  (1) 
0.220977426

$$$$
