
     RDKit          3D

 39 41  0  0  0  0  0  0  0  0999 V2000
   46.1070   31.7290   45.2330 C   0  0  0  0  0  0  0  0  0  0  0  0
   47.0840   32.5000   47.4020 C   0  0  0  0  0  0  0  0  0  0  0  0
   46.9740   31.4970   46.3920 C   0  0  0  0  0  0  0  0  0  0  0  0
   47.7080   30.3230   46.5600 C   0  0  0  0  0  0  0  0  0  0  0  0
   48.4810   30.1940   47.6640 N   0  0  0  0  0  0  0  0  0  0  0  0
   48.5550   31.1630   48.5880 C   0  0  0  0  0  0  0  0  0  0  0  0
   47.8700   32.3100   48.4740 N   0  0  0  0  0  0  0  0  0  0  0  0
   49.4180   30.9290   49.8020 C   0  0  0  0  0  0  0  0  0  0  0  0
   50.7020   31.6260   49.7350 C   0  0  0  0  0  0  0  0  0  0  0  0
   51.8940   31.1160   49.2520 C   0  0  0  0  0  0  0  0  0  0  0  0
   52.8650   32.0740   49.3600 C   0  0  0  0  0  0  0  0  0  0  0  0
   52.2360   33.1470   49.9080 N   0  0  0  0  0  0  0  0  0  0  0  0
   50.9510   32.8860   50.1330 N   0  0  0  0  0  0  0  0  0  0  0  0
   46.7880   32.7420   44.3500 C   0  0  0  0  0  0  0  0  0  0  0  0
   46.2770   34.7400   43.0250 C   0  0  0  0  0  0  0  0  0  0  0  0
   46.0670   34.0070   44.1730 C   0  0  0  0  0  0  0  0  0  0  0  0
   45.2170   34.3930   45.1670 C   0  0  0  0  0  0  0  0  0  0  0  0
   44.5330   35.5790   45.0160 C   0  0  0  0  0  0  0  0  0  0  0  0
   44.6750   36.3630   43.9280 C   0  0  0  0  0  0  0  0  0  0  0  0
   45.5570   35.9130   42.9490 C   0  0  0  0  0  0  0  0  0  0  0  0
   47.3480   34.2860   41.7380 S   0  0  0  0  0  0  0  0  0  0  0  0
   48.3790   35.3560   41.4240 O   0  0  0  0  0  0  0  0  0  0  0  0
   46.5420   34.1690   40.4530 O   0  0  0  0  0  0  0  0  0  0  0  0
   45.9595   30.7891   44.6809 H   0  0  0  0  0  0  0  0  0  0  0  0
   45.1219   32.0976   45.5552 H   0  0  0  0  0  0  0  0  0  0  0  0
   46.5189   33.4383   47.3010 H   0  0  0  0  0  0  0  0  0  0  0  0
   47.6599   29.5187   45.8112 H   0  0  0  0  0  0  0  0  0  0  0  0
   48.8744   31.2809   50.6912 H   0  0  0  0  0  0  0  0  0  0  0  0
   49.6316   29.8510   49.8502 H   0  0  0  0  0  0  0  0  0  0  0  0
   52.0379   30.1036   48.8465 H   0  0  0  0  0  0  0  0  0  0  0  0
   53.9224   31.9934   49.0676 H   0  0  0  0  0  0  0  0  0  0  0  0
   52.6941   34.0446   50.1212 H   0  0  0  0  0  0  0  0  0  0  0  0
   47.7703   32.9697   44.7896 H   0  0  0  0  0  0  0  0  0  0  0  0
   46.8464   32.2838   43.3517 H   0  0  0  0  0  0  0  0  0  0  0  0
   45.0812   33.7735   46.0658 H   0  0  0  0  0  0  0  0  0  0  0  0
   43.8452   35.8986   45.8127 H   0  0  0  0  0  0  0  0  0  0  0  0
   44.1231   37.3083   43.8196 H   0  0  0  0  0  0  0  0  0  0  0  0
   45.6883   36.5369   42.0526 H   0  0  0  0  0  0  0  0  0  0  0  0
   47.9580   33.1275   42.1412 H   0  0  0  0  0  0  0  0  0  0  0  0
  1  3  1  0
  2  7  2  0
  3  4  2  0
  3  2  1  0
  4  5  1  0
  5  6  2  0
  6  8  1  0
  7  6  1  0
  9  8  1  0
  9 13  2  0
 10 11  2  0
 10  9  1  0
 11 12  1  0
 12 13  1  0
 14  1  1  0
 15 16  2  0
 16 14  1  0
 16 17  1  0
 18 17  2  0
 19 18  1  0
 20 15  1  0
 20 19  2  0
 21 15  1  0
 22 21  2  0
 23 21  2  0
  1 24  1  0
  1 25  1  0
  2 26  1  0
  4 27  1  0
  8 28  1  0
  8 29  1  0
 10 30  1  0
 11 31  1  0
 12 32  1  0
 14 33  1  0
 14 34  1  0
 17 35  1  0
 18 36  1  0
 19 37  1  0
 20 38  1  0
 21 39  1  0
M  ISO  8  24   8  25   8  26  14  27  14  28   8  29   8  30  14  31  14
M  ISO  8  32   9  33   8  34   8  35  14  36  14  37  14  38  14  39  11
M  END
>  <minimizedAffinity>  (1) 
-5.75060034

>  <minimizedRMSD>  (1) 
1.06639171

$$$$
