
     RDKit          3D

 55 58  0  0  0  0  0  0  0  0999 V2000
   46.1970   31.7840   45.1460 C   0  0  0  0  0  0  0  0  0  0  0  0
   47.0960   32.5060   47.3330 C   0  0  0  0  0  0  0  0  0  0  0  0
   47.0480   31.5390   46.3060 C   0  0  0  0  0  0  0  0  0  0  0  0
   47.7940   30.3880   46.4670 C   0  0  0  0  0  0  0  0  0  0  0  0
   48.5280   30.2440   47.5930 N   0  0  0  0  0  0  0  0  0  0  0  0
   48.5520   31.1710   48.5470 C   0  0  0  0  0  0  0  0  0  0  0  0
   47.8410   32.3180   48.4400 N   0  0  0  0  0  0  0  0  0  0  0  0
   49.3840   30.9240   49.7780 C   0  0  0  0  0  0  0  0  0  0  0  0
   50.6640   31.6170   49.7600 C   0  0  0  0  0  0  0  0  0  0  0  0
   51.8740   31.0610   49.3670 C   0  0  0  0  0  0  0  0  0  0  0  0
   52.8510   32.0150   49.4860 C   0  0  0  0  0  0  0  0  0  0  0  0
   52.2030   33.1250   49.9490 N   0  0  0  0  0  0  0  0  0  0  0  0
   50.9020   32.8940   50.1140 N   0  0  0  0  0  0  0  0  0  0  0  0
   46.8740   32.8180   44.2970 C   0  0  0  0  0  0  0  0  0  0  0  0
   46.4840   34.8100   42.9880 C   0  0  0  0  0  0  0  0  0  0  0  0
   46.1450   34.0770   44.0980 C   0  0  0  0  0  0  0  0  0  0  0  0
   45.2080   34.4000   45.0010 C   0  0  0  0  0  0  0  0  0  0  0  0
   44.5170   35.5580   44.8240 C   0  0  0  0  0  0  0  0  0  0  0  0
   44.7540   36.3740   43.7640 C   0  0  0  0  0  0  0  0  0  0  0  0
   45.7350   35.9740   42.8730 C   0  0  0  0  0  0  0  0  0  0  0  0
   47.7480   34.5550   41.8620 S   0  0  0  0  0  0  0  0  0  0  0  0
   48.5590   35.8020   41.6410 O   0  0  0  0  0  0  0  0  0  0  0  0
   46.9940   34.3950   40.5030 O   0  0  0  0  0  0  0  0  0  0  0  0
   48.7290   33.2170   41.6970 C   0  0  0  0  0  0  0  0  0  0  0  0
   48.1600   31.8790   41.2060 C   0  0  0  0  0  0  0  0  0  0  0  0
   49.1930   31.0570   40.4710 C   0  0  0  0  0  0  0  0  0  0  0  0
   50.5040   30.9730   41.1870 C   0  0  0  0  0  0  0  0  0  0  0  0
   51.0610   32.2880   41.6180 C   0  0  0  0  0  0  0  0  0  0  0  0
   50.0360   33.0520   42.4400 C   0  0  0  0  0  0  0  0  0  0  0  0
   46.0676   30.8542   44.5727 H   0  0  0  0  0  0  0  0  0  0  0  0
   45.2037   32.1345   45.4629 H   0  0  0  0  0  0  0  0  0  0  0  0
   46.5129   33.4327   47.2275 H   0  0  0  0  0  0  0  0  0  0  0  0
   47.7910   29.6045   45.6949 H   0  0  0  0  0  0  0  0  0  0  0  0
   48.8160   31.2638   50.6566 H   0  0  0  0  0  0  0  0  0  0  0  0
   49.5992   29.8458   49.8132 H   0  0  0  0  0  0  0  0  0  0  0  0
   52.0235   30.0284   49.0187 H   0  0  0  0  0  0  0  0  0  0  0  0
   53.9221   31.9099   49.2585 H   0  0  0  0  0  0  0  0  0  0  0  0
   52.6623   34.0258   50.1454 H   0  0  0  0  0  0  0  0  0  0  0  0
   47.8378   33.0600   44.7688 H   0  0  0  0  0  0  0  0  0  0  0  0
   46.9575   32.3669   43.2972 H   0  0  0  0  0  0  0  0  0  0  0  0
   45.0037   33.7461   45.8617 H   0  0  0  0  0  0  0  0  0  0  0  0
   43.7473   35.8408   45.5572 H   0  0  0  0  0  0  0  0  0  0  0  0
   44.1925   37.3090   43.6204 H   0  0  0  0  0  0  0  0  0  0  0  0
   45.9362   36.6261   42.0103 H   0  0  0  0  0  0  0  0  0  0  0  0
   49.0386   33.7986   40.8162 H   0  0  0  0  0  0  0  0  0  0  0  0
   47.8028   31.3056   42.0741 H   0  0  0  0  0  0  0  0  0  0  0  0
   47.3398   32.0964   40.5060 H   0  0  0  0  0  0  0  0  0  0  0  0
   49.3631   31.5121   39.4841 H   0  0  0  0  0  0  0  0  0  0  0  0
   48.7986   30.0330   40.3939 H   0  0  0  0  0  0  0  0  0  0  0  0
   50.3668   30.3484   42.0820 H   0  0  0  0  0  0  0  0  0  0  0  0
   51.2237   30.5488   40.4714 H   0  0  0  0  0  0  0  0  0  0  0  0
   51.9611   32.1186   42.2272 H   0  0  0  0  0  0  0  0  0  0  0  0
   51.3153   32.8784   40.7254 H   0  0  0  0  0  0  0  0  0  0  0  0
   50.4395   34.0478   42.6757 H   0  0  0  0  0  0  0  0  0  0  0  0
   49.8374   32.4781   43.3572 H   0  0  0  0  0  0  0  0  0  0  0  0
  1  3  1  0
  2  7  2  0
  3  4  2  0
  3  2  1  0
  4  5  1  0
  5  6  2  0
  6  8  1  0
  7  6  1  0
  9  8  1  0
  9 13  2  0
 10 11  2  0
 10  9  1  0
 11 12  1  0
 12 13  1  0
 14  1  1  0
 15 16  1  0
 16 14  1  0
 16 17  2  0
 18 17  1  0
 19 18  2  0
 20 15  2  0
 20 19  1  0
 21 15  1  0
 22 21  2  0
 23 21  2  0
 24 21  1  0
 24 29  1  0
 25 24  1  0
 26 27  1  0
 26 25  1  0
 27 28  1  0
 28 29  1  0
  1 30  1  0
  1 31  1  0
  2 32  1  0
  4 33  1  0
  8 34  1  0
  8 35  1  0
 10 36  1  0
 11 37  1  0
 12 38  1  0
 14 39  1  0
 14 40  1  0
 17 41  1  0
 18 42  1  0
 19 43  1  0
 20 44  1  0
 24 45  1  0
 25 46  1  0
 25 47  1  0
 26 48  1  0
 26 49  1  0
 27 50  1  0
 27 51  1  0
 28 52  1  0
 28 53  1  0
 29 54  1  0
 29 55  1  0
M  ISO  8  30   8  31   8  32  14  33  14  34   8  35   8  36  14  37  14
M  ISO  8  38   9  39   8  40   8  41  14  42  14  43  14  44  14  45  13
M  ISO  8  46  13  47  13  48  13  49  13  50  13  51  13  52  13  53  13
M  ISO  2  54  13  55  13
M  END
>  <minimizedAffinity>  (1) 
-6.38984537

>  <minimizedRMSD>  (1) 
0.560981631

$$$$
