
     RDKit          3D

 46 49  0  0  0  0  0  0  0  0999 V2000
   45.9310   31.5820   45.6780 C   0  0  0  0  0  0  0  0  0  0  0  0
   47.1830   32.4220   47.6520 C   0  0  0  0  0  0  0  0  0  0  0  0
   46.9020   31.3780   46.7460 C   0  0  0  0  0  0  0  0  0  0  0  0
   47.5770   30.1760   46.9350 C   0  0  0  0  0  0  0  0  0  0  0  0
   48.4490   30.0650   47.9540 N   0  0  0  0  0  0  0  0  0  0  0  0
   48.6830   31.0750   48.7850 C   0  0  0  0  0  0  0  0  0  0  0  0
   48.0600   32.2680   48.6530 N   0  0  0  0  0  0  0  0  0  0  0  0
   49.6570   30.8700   49.9200 C   0  0  0  0  0  0  0  0  0  0  0  0
   50.9070   31.5880   49.7490 C   0  0  0  0  0  0  0  0  0  0  0  0
   52.0540   31.0860   49.1500 C   0  0  0  0  0  0  0  0  0  0  0  0
   53.0230   32.0490   49.1720 C   0  0  0  0  0  0  0  0  0  0  0  0
   52.4400   33.1100   49.7830 N   0  0  0  0  0  0  0  0  0  0  0  0
   51.1800   32.8420   50.1300 N   0  0  0  0  0  0  0  0  0  0  0  0
   46.5740   32.4330   44.6220 C   0  0  0  0  0  0  0  0  0  0  0  0
   46.0730   34.2530   43.0650 C   0  0  0  0  0  0  0  0  0  0  0  0
   45.9450   33.7280   44.3480 C   0  0  0  0  0  0  0  0  0  0  0  0
   45.2710   34.3160   45.3540 C   0  0  0  0  0  0  0  0  0  0  0  0
   44.6590   35.5190   45.1190 C   0  0  0  0  0  0  0  0  0  0  0  0
   44.7090   36.1350   43.8950 C   0  0  0  0  0  0  0  0  0  0  0  0
   45.4200   35.4790   42.8950 C   0  0  0  0  0  0  0  0  0  0  0  0
   46.8930   33.5130   41.7510 S   0  0  0  0  0  0  0  0  0  0  0  0
   46.9280   34.5680   40.5640 O   0  0  0  0  0  0  0  0  0  0  0  0
   46.0540   32.4290   41.1730 O   0  0  0  0  0  0  0  0  0  0  0  0
   48.5070   33.1690   41.8000 C   0  0  0  0  0  0  0  0  0  0  0  0
   49.4320   34.1750   42.5220 C   0  0  0  0  0  0  0  0  0  0  0  0
   50.7350   33.8090   42.5060 C   0  0  0  0  0  0  0  0  0  0  0  0
   51.2110   32.6230   41.8910 C   0  0  0  0  0  0  0  0  0  0  0  0
   49.6380   31.8710   41.2190 S   0  0  0  0  0  0  0  0  0  0  0  0
   45.6389   30.6122   45.2490 H   0  0  0  0  0  0  0  0  0  0  0  0
   45.0300   32.0762   46.0704 H   0  0  0  0  0  0  0  0  0  0  0  0
   46.6689   33.3872   47.5336 H   0  0  0  0  0  0  0  0  0  0  0  0
   47.3999   29.3263   46.2593 H   0  0  0  0  0  0  0  0  0  0  0  0
   49.1831   31.2134   50.8514 H   0  0  0  0  0  0  0  0  0  0  0  0
   49.9014   29.7978   49.9461 H   0  0  0  0  0  0  0  0  0  0  0  0
   52.1649   30.0769   48.7264 H   0  0  0  0  0  0  0  0  0  0  0  0
   54.0487   31.9791   48.7808 H   0  0  0  0  0  0  0  0  0  0  0  0
   52.9107   34.0095   49.9572 H   0  0  0  0  0  0  0  0  0  0  0  0
   47.6110   32.6254   44.9346 H   0  0  0  0  0  0  0  0  0  0  0  0
   46.4748   31.8598   43.6884 H   0  0  0  0  0  0  0  0  0  0  0  0
   45.2128   33.8405   46.3442 H   0  0  0  0  0  0  0  0  0  0  0  0
   44.1100   36.0062   45.9383 H   0  0  0  0  0  0  0  0  0  0  0  0
   44.2120   37.0993   43.7128 H   0  0  0  0  0  0  0  0  0  0  0  0
   45.4723   35.9557   41.9050 H   0  0  0  0  0  0  0  0  0  0  0  0
   49.0679   35.0960   43.0008 H   0  0  0  0  0  0  0  0  0  0  0  0
   51.4656   34.4683   42.9975 H   0  0  0  0  0  0  0  0  0  0  0  0
   52.2414   32.2434   41.8262 H   0  0  0  0  0  0  0  0  0  0  0  0
  1  3  1  0
  2  7  2  0
  3  4  2  0
  3  2  1  0
  4  5  1  0
  5  6  2  0
  6  8  1  0
  7  6  1  0
  9  8  1  0
  9 13  2  0
 10 11  2  0
 10  9  1  0
 11 12  1  0
 12 13  1  0
 14  1  1  0
 15 16  1  0
 16 14  1  0
 16 17  2  0
 18 17  1  0
 19 18  2  0
 20 15  2  0
 20 19  1  0
 21 24  1  0
 21 15  1  0
 22 21  2  0
 23 21  2  0
 24 25  2  0
 26 25  1  0
 27 26  2  0
 28 24  1  0
 28 27  1  0
  1 29  1  0
  1 30  1  0
  2 31  1  0
  4 32  1  0
  8 33  1  0
  8 34  1  0
 10 35  1  0
 11 36  1  0
 12 37  1  0
 14 38  1  0
 14 39  1  0
 17 40  1  0
 18 41  1  0
 19 42  1  0
 20 43  1  0
 25 44  1  0
 26 45  1  0
 27 46  1  0
M  ISO  8  29   8  30   8  31  14  32  14  33   8  34   8  35  14  36  14
M  ISO  8  37   9  38   8  39   8  40  14  41  14  42  14  43  14  44  14
M  ISO  2  45  14  46  14
M  END
>  <minimizedAffinity>  (1) 
-6.25830698

>  <minimizedRMSD>  (1) 
0.795261085

$$$$
