
     RDKit          3D

 31 33  0  0  0  0  0  0  0  0999 V2000
   47.0770   34.5140   42.2860 C   0  0  0  0  0  0  0  0  0  0  0  0
   48.1640   35.2770   41.9470 C   0  0  0  0  0  0  0  0  0  0  0  0
   48.5980   35.2980   40.6380 C   0  0  0  0  0  0  0  0  0  0  0  0
   47.9800   34.5780   39.6330 C   0  0  0  0  0  0  0  0  0  0  0  0
   48.4920   34.6770   38.3850 N   0  0  0  0  0  0  0  0  0  0  0  0
   47.8960   33.9740   37.3870 C   0  0  0  0  0  0  0  0  0  0  0  0
   46.8030   33.2060   37.7160 C   0  0  0  0  0  0  0  0  0  0  0  0
   46.2530   33.0830   38.9830 C   0  0  0  0  0  0  0  0  0  0  0  0
   46.8820   33.8080   39.9740 C   0  0  0  0  0  0  0  0  0  0  0  0
   46.4270   33.7700   41.2900 C   0  0  0  0  0  0  0  0  0  0  0  0
   45.3950   35.1330   44.0540 C   0  0  0  0  0  0  0  0  0  0  0  0
   46.4590   34.3480   43.5940 C   0  0  0  0  0  0  0  0  0  0  0  0
   46.9650   33.3300   44.4480 C   0  0  0  0  0  0  0  0  0  0  0  0
   46.3580   33.2050   45.6640 N   0  0  0  0  0  0  0  0  0  0  0  0
   45.3470   33.9710   46.0670 C   0  0  0  0  0  0  0  0  0  0  0  0
   44.8690   34.9300   45.2650 N   0  0  0  0  0  0  0  0  0  0  0  0
   44.8930   36.1470   43.2040 N   0  0  0  0  0  0  0  0  0  0  0  0
   44.9990   32.6100   48.1130 C   0  0  0  0  0  0  0  0  0  0  0  0
   45.7650   31.7420   47.5730 O   0  0  0  0  0  0  0  0  0  0  0  0
   44.7610   33.7850   47.3510 N   0  0  0  0  0  0  0  0  0  0  0  0
   48.6865   35.8683   42.7134 H   0  0  0  0  0  0  0  0  0  0  0  0
   49.4731   35.9139   40.3830 H   0  0  0  0  0  0  0  0  0  0  0  0
   48.2732   34.0172   36.3546 H   0  0  0  0  0  0  0  0  0  0  0  0
   46.3237   32.6404   36.9034 H   0  0  0  0  0  0  0  0  0  0  0  0
   45.3755   32.4508   39.1841 H   0  0  0  0  0  0  0  0  0  0  0  0
   45.5537   33.1536   41.5495 H   0  0  0  0  0  0  0  0  0  0  0  0
   47.7990   32.6796   44.1456 H   0  0  0  0  0  0  0  0  0  0  0  0
   45.3092   36.2913   42.2729 H   0  0  0  0  0  0  0  0  0  0  0  0
   44.1115   36.7407   43.5164 H   0  0  0  0  0  0  0  0  0  0  0  0
   44.5516   32.4571   49.1062 H   0  0  0  0  0  0  0  0  0  0  0  0
   44.1503   34.5194   47.7364 H   0  0  0  0  0  0  0  0  0  0  0  0
  1 12  1  0
  2  1  2  0
  3  2  1  0
  4  9  1  0
  4  3  2  0
  5  4  1  0
  6  7  1  0
  6  5  2  0
  7  8  2  0
  8  9  1  0
  9 10  2  0
 10  1  1  0
 11 16  2  0
 12 11  1  0
 12 13  2  0
 13 14  1  0
 14 15  2  0
 15 20  1  0
 16 15  1  0
 17 11  1  0
 19 18  2  0
 20 18  1  0
  2 21  1  0
  3 22  1  0
  6 23  1  0
  7 24  1  0
  8 25  1  0
 10 26  1  0
 13 27  1  0
 17 28  1  0
 17 29  1  0
 18 30  1  0
 20 31  1  0
M  ISO  8  21  14  22  14  23  14  24  14  25  14  26  14  27  14  30   6
M  END
>  <minimizedAffinity>  (1) 
-7.05593109

>  <minimizedRMSD>  (1) 
0.718966007

$$$$
