
     RDKit          3D

 29 31  0  0  0  0  0  0  0  0999 V2000
   46.8250   34.6310   42.3020 C   0  0  0  0  0  0  0  0  0  0  0  0
   47.9960   35.2600   41.9670 C   0  0  0  0  0  0  0  0  0  0  0  0
   48.4880   35.1720   40.6860 C   0  0  0  0  0  0  0  0  0  0  0  0
   47.8510   34.4640   39.6890 C   0  0  0  0  0  0  0  0  0  0  0  0
   48.4080   34.4350   38.4690 N   0  0  0  0  0  0  0  0  0  0  0  0
   47.7820   33.7360   37.4760 C   0  0  0  0  0  0  0  0  0  0  0  0
   46.6050   33.1000   37.8030 C   0  0  0  0  0  0  0  0  0  0  0  0
   46.0110   33.1120   39.0440 C   0  0  0  0  0  0  0  0  0  0  0  0
   46.6640   33.8250   40.0260 C   0  0  0  0  0  0  0  0  0  0  0  0
   46.1490   33.9020   41.3170 C   0  0  0  0  0  0  0  0  0  0  0  0
   45.1620   35.5180   43.9680 C   0  0  0  0  0  0  0  0  0  0  0  0
   46.1470   34.6040   43.5910 C   0  0  0  0  0  0  0  0  0  0  0  0
   46.5210   33.5790   44.5160 C   0  0  0  0  0  0  0  0  0  0  0  0
   45.8690   33.5810   45.7130 N   0  0  0  0  0  0  0  0  0  0  0  0
   44.9330   34.4700   46.0380 C   0  0  0  0  0  0  0  0  0  0  0  0
   44.5890   35.4270   45.1680 N   0  0  0  0  0  0  0  0  0  0  0  0
   44.8000   36.5250   43.0520 N   0  0  0  0  0  0  0  0  0  0  0  0
   44.2690   34.4480   47.2960 N   0  0  0  0  0  0  0  0  0  0  0  0
   48.5443   35.8374   42.7259 H   0  0  0  0  0  0  0  0  0  0  0  0
   49.4294   35.6882   40.4466 H   0  0  0  0  0  0  0  0  0  0  0  0
   48.1998   33.6835   36.4598 H   0  0  0  0  0  0  0  0  0  0  0  0
   46.0980   32.5359   37.0063 H   0  0  0  0  0  0  0  0  0  0  0  0
   45.0675   32.5820   39.2413 H   0  0  0  0  0  0  0  0  0  0  0  0
   45.2081   33.3884   41.5636 H   0  0  0  0  0  0  0  0  0  0  0  0
   47.2912   32.8315   44.2750 H   0  0  0  0  0  0  0  0  0  0  0  0
   45.2588   36.5726   42.1310 H   0  0  0  0  0  0  0  0  0  0  0  0
   44.0765   37.2138   43.3032 H   0  0  0  0  0  0  0  0  0  0  0  0
   43.5497   35.1532   47.5111 H   0  0  0  0  0  0  0  0  0  0  0  0
   44.5075   33.7269   47.9917 H   0  0  0  0  0  0  0  0  0  0  0  0
  1 12  1  0
  2  1  2  0
  3  2  1  0
  4  9  1  0
  4  3  2  0
  5  4  1  0
  6  7  1  0
  6  5  2  0
  7  8  2  0
  8  9  1  0
  9 10  2  0
 10  1  1  0
 11 16  2  0
 12 11  1  0
 12 13  2  0
 13 14  1  0
 14 15  2  0
 15 18  1  0
 16 15  1  0
 17 11  1  0
  2 19  1  0
  3 20  1  0
  6 21  1  0
  7 22  1  0
  8 23  1  0
 10 24  1  0
 13 25  1  0
 17 26  1  0
 17 27  1  0
 18 28  1  0
 18 29  1  0
M  ISO  7  19  14  20  14  21  14  22  14  23  14  24  14  25  14
M  END
>  <minimizedAffinity>  (1) 
-6.96752214

>  <minimizedRMSD>  (1) 
0.200680971

$$$$
