
     RDKit          3D

 41 44  0  0  0  0  0  0  0  0999 V2000
   46.1640   34.1340   44.2860 C   0  0  0  0  0  0  0  0  0  0  0  0
   47.0480   33.4020   43.4900 C   0  0  0  0  0  0  0  0  0  0  0  0
   47.6950   32.2700   44.0790 C   0  0  0  0  0  0  0  0  0  0  0  0
   47.3970   31.9970   45.3700 N   0  0  0  0  0  0  0  0  0  0  0  0
   46.5460   32.7200   46.0990 C   0  0  0  0  0  0  0  0  0  0  0  0
   45.9390   33.7790   45.5530 N   0  0  0  0  0  0  0  0  0  0  0  0
   45.5260   35.2560   43.6980 N   0  0  0  0  0  0  0  0  0  0  0  0
   46.2930   32.3600   47.4440 N   0  0  0  0  0  0  0  0  0  0  0  0
   47.3130   32.3000   48.4760 C   0  0  0  0  0  0  0  0  0  0  0  0
   47.4190   30.8100   48.8280 C   0  0  0  0  0  0  0  0  0  0  0  0
   46.1450   30.1890   49.0150 N   0  0  0  0  0  0  0  0  0  0  0  0
   45.0410   31.1190   49.1030 C   0  0  0  0  0  0  0  0  0  0  0  0
   44.9570   32.0180   47.8900 C   0  0  0  0  0  0  0  0  0  0  0  0
   47.3510   33.7170   42.1040 C   0  0  0  0  0  0  0  0  0  0  0  0
   48.1800   34.6980   41.6170 C   0  0  0  0  0  0  0  0  0  0  0  0
   48.3410   34.8430   40.2510 C   0  0  0  0  0  0  0  0  0  0  0  0
   47.7030   34.0400   39.3400 C   0  0  0  0  0  0  0  0  0  0  0  0
   47.9250   34.2600   38.0260 N   0  0  0  0  0  0  0  0  0  0  0  0
   47.2970   33.4700   37.1110 C   0  0  0  0  0  0  0  0  0  0  0  0
   46.4650   32.4850   37.5850 C   0  0  0  0  0  0  0  0  0  0  0  0
   46.2140   32.2310   38.9210 C   0  0  0  0  0  0  0  0  0  0  0  0
   46.8700   33.0550   39.8280 C   0  0  0  0  0  0  0  0  0  0  0  0
   46.6930   32.8910   41.1970 C   0  0  0  0  0  0  0  0  0  0  0  0
   48.4022   31.6502   43.5083 H   0  0  0  0  0  0  0  0  0  0  0  0
   45.7209   35.5040   42.7175 H   0  0  0  0  0  0  0  0  0  0  0  0
   44.8678   35.8228   44.2515 H   0  0  0  0  0  0  0  0  0  0  0  0
   48.2732   32.6786   48.0957 H   0  0  0  0  0  0  0  0  0  0  0  0
   47.0598   32.9185   49.3497 H   0  0  0  0  0  0  0  0  0  0  0  0
   47.9445   30.2933   48.0114 H   0  0  0  0  0  0  0  0  0  0  0  0
   47.9652   30.7345   49.7798 H   0  0  0  0  0  0  0  0  0  0  0  0
   45.9732   29.5576   48.2195 H   0  0  0  0  0  0  0  0  0  0  0  0
   44.1036   30.5498   49.1883 H   0  0  0  0  0  0  0  0  0  0  0  0
   45.2032   31.7551   49.9857 H   0  0  0  0  0  0  0  0  0  0  0  0
   44.4124   32.9369   48.1526 H   0  0  0  0  0  0  0  0  0  0  0  0
   44.4259   31.4928   47.0825 H   0  0  0  0  0  0  0  0  0  0  0  0
   48.7133   35.3651   42.3102 H   0  0  0  0  0  0  0  0  0  0  0  0
   49.0082   35.6349   39.8798 H   0  0  0  0  0  0  0  0  0  0  0  0
   47.4506   33.6156   36.0315 H   0  0  0  0  0  0  0  0  0  0  0  0
   45.9590   31.8487   36.8441 H   0  0  0  0  0  0  0  0  0  0  0  0
   45.5373   31.4269   39.2457 H   0  0  0  0  0  0  0  0  0  0  0  0
   46.0253   32.0994   41.5679 H   0  0  0  0  0  0  0  0  0  0  0  0
  1  6  2  0
  2  3  2  0
  2  1  1  0
  3  4  1  0
  4  5  2  0
  5  8  1  0
  6  5  1  0
  7  1  1  0
  8 13  1  0
  8  9  1  0
  9 10  1  0
 10 11  1  0
 11 12  1  0
 13 12  1  0
 14  2  1  0
 15 14  2  0
 16 15  1  0
 17 22  1  0
 17 16  2  0
 18 17  1  0
 19 20  1  0
 19 18  2  0
 20 21  2  0
 21 22  1  0
 22 23  2  0
 23 14  1  0
  3 24  1  0
  7 25  1  0
  7 26  1  0
  9 27  1  0
  9 28  1  0
 10 29  1  0
 10 30  1  0
 11 31  1  0
 12 32  1  0
 12 33  1  0
 13 34  1  0
 13 35  1  0
 15 36  1  0
 16 37  1  0
 19 38  1  0
 20 39  1  0
 21 40  1  0
 23 41  1  0
M  ISO  8  24  14  27  13  28  13  29  13  30  13  31   5  32  13  33  13
M  ISO  8  34  13  35  13  36  14  37  14  38  14  39  14  40  14  41  14
M  END
>  <minimizedAffinity>  (1) 
-6.39307404

>  <minimizedRMSD>  (1) 
2.31701374

$$$$
