
     RDKit          3D

 42 45  0  0  0  0  0  0  0  0999 V2000
   45.6600   34.6770   44.2080 C   0  0  0  0  0  0  0  0  0  0  0  0
   46.7110   33.9640   43.6240 C   0  0  0  0  0  0  0  0  0  0  0  0
   47.3020   32.8800   44.3430 C   0  0  0  0  0  0  0  0  0  0  0  0
   46.8000   32.6010   45.5670 N   0  0  0  0  0  0  0  0  0  0  0  0
   45.7780   33.3180   46.1030 C   0  0  0  0  0  0  0  0  0  0  0  0
   45.2280   34.3390   45.4140 N   0  0  0  0  0  0  0  0  0  0  0  0
   45.0980   35.7320   43.4890 N   0  0  0  0  0  0  0  0  0  0  0  0
   47.2500   34.2620   42.3130 C   0  0  0  0  0  0  0  0  0  0  0  0
   48.2720   35.1520   41.9940 C   0  0  0  0  0  0  0  0  0  0  0  0
   48.6740   35.3210   40.6840 C   0  0  0  0  0  0  0  0  0  0  0  0
   48.0760   34.6130   39.6470 C   0  0  0  0  0  0  0  0  0  0  0  0
   48.5260   34.8290   38.4020 N   0  0  0  0  0  0  0  0  0  0  0  0
   47.9550   34.1400   37.3610 C   0  0  0  0  0  0  0  0  0  0  0  0
   46.9500   33.2640   37.6710 C   0  0  0  0  0  0  0  0  0  0  0  0
   46.4820   33.0360   38.9390 C   0  0  0  0  0  0  0  0  0  0  0  0
   47.0600   33.7290   39.9710 C   0  0  0  0  0  0  0  0  0  0  0  0
   46.6430   33.5480   41.2840 C   0  0  0  0  0  0  0  0  0  0  0  0
   45.3030   32.9240   47.4730 C   0  0  0  0  0  0  0  0  0  0  0  0
   46.4240   32.2030   48.2130 C   0  0  0  0  0  0  0  0  0  0  0  0
   46.3820   30.7400   47.9370 C   0  0  0  0  0  0  0  0  0  0  0  0
   45.1030   30.2020   47.9850 C   0  0  0  0  0  0  0  0  0  0  0  0
   44.9260   28.8530   47.7460 C   0  0  0  0  0  0  0  0  0  0  0  0
   46.0080   28.0350   47.4570 C   0  0  0  0  0  0  0  0  0  0  0  0
   47.2670   28.6340   47.4240 C   0  0  0  0  0  0  0  0  0  0  0  0
   47.4250   29.9660   47.6620 N   0  0  0  0  0  0  0  0  0  0  0  0
   48.1317   32.2961   43.9180 H   0  0  0  0  0  0  0  0  0  0  0  0
   45.4588   35.9675   42.5534 H   0  0  0  0  0  0  0  0  0  0  0  0
   44.3223   36.2755   43.8937 H   0  0  0  0  0  0  0  0  0  0  0  0
   48.7638   35.7259   42.7932 H   0  0  0  0  0  0  0  0  0  0  0  0
   49.4836   36.0299   40.4559 H   0  0  0  0  0  0  0  0  0  0  0  0
   48.2903   34.2855   36.3235 H   0  0  0  0  0  0  0  0  0  0  0  0
   46.4859   32.7043   36.8456 H   0  0  0  0  0  0  0  0  0  0  0  0
   45.6680   32.3193   39.1228 H   0  0  0  0  0  0  0  0  0  0  0  0
   45.8324   32.8397   41.5104 H   0  0  0  0  0  0  0  0  0  0  0  0
   45.0140   33.8251   48.0338 H   0  0  0  0  0  0  0  0  0  0  0  0
   44.4351   32.2545   47.3811 H   0  0  0  0  0  0  0  0  0  0  0  0
   47.3926   32.6053   47.8813 H   0  0  0  0  0  0  0  0  0  0  0  0
   46.2940   32.3626   49.2936 H   0  0  0  0  0  0  0  0  0  0  0  0
   44.2388   30.8439   48.2112 H   0  0  0  0  0  0  0  0  0  0  0  0
   43.9146   28.4224   47.7854 H   0  0  0  0  0  0  0  0  0  0  0  0
   45.8787   26.9601   47.2622 H   0  0  0  0  0  0  0  0  0  0  0  0
   48.1508   28.0181   47.2012 H   0  0  0  0  0  0  0  0  0  0  0  0
  1  6  2  0
  2  1  1  0
  2  3  2  0
  3  4  1  0
  4  5  2  0
  5 18  1  0
  6  5  1  0
  7  1  1  0
  8  2  1  0
  9  8  2  0
 10  9  1  0
 11 16  1  0
 11 10  2  0
 12 11  1  0
 13 14  1  0
 13 12  2  0
 14 15  2  0
 15 16  1  0
 16 17  2  0
 17  8  1  0
 18 19  1  0
 20 21  2  0
 20 19  1  0
 22 21  1  0
 23 22  2  0
 24 23  1  0
 24 25  2  0
 25 20  1  0
  3 26  1  0
  7 27  1  0
  7 28  1  0
  9 29  1  0
 10 30  1  0
 13 31  1  0
 14 32  1  0
 15 33  1  0
 17 34  1  0
 18 35  1  0
 18 36  1  0
 19 37  1  0
 19 38  1  0
 21 39  1  0
 22 40  1  0
 23 41  1  0
 24 42  1  0
M  ISO  8  26  14  29  14  30  14  31  14  32  14  33  14  34  14  35   8
M  ISO  7  36   8  37   8  38   8  39  14  40  14  41  14  42  14
M  END
>  <minimizedAffinity>  (1) 
-6.49727201

>  <minimizedRMSD>  (1) 
1.38791156

$$$$
