
     RDKit          3D

 47 50  0  0  0  0  0  0  0  0999 V2000
   45.4120   35.3340   43.6560 C   0  0  0  0  0  0  0  0  0  0  0  0
   46.4750   34.4900   43.2360 C   0  0  0  0  0  0  0  0  0  0  0  0
   46.9560   33.5190   44.1370 C   0  0  0  0  0  0  0  0  0  0  0  0
   46.3610   33.4600   45.3520 N   0  0  0  0  0  0  0  0  0  0  0  0
   45.3590   34.2660   45.7240 C   0  0  0  0  0  0  0  0  0  0  0  0
   44.8950   35.1900   44.8800 N   0  0  0  0  0  0  0  0  0  0  0  0
   44.9380   36.2980   42.7690 N   0  0  0  0  0  0  0  0  0  0  0  0
   47.0790   34.5820   41.9280 C   0  0  0  0  0  0  0  0  0  0  0  0
   48.1850   35.3110   41.5500 C   0  0  0  0  0  0  0  0  0  0  0  0
   48.6400   35.2950   40.2470 C   0  0  0  0  0  0  0  0  0  0  0  0
   48.0040   34.5460   39.2680 C   0  0  0  0  0  0  0  0  0  0  0  0
   48.5040   34.5780   38.0220 N   0  0  0  0  0  0  0  0  0  0  0  0
   47.8920   33.8480   37.0500 C   0  0  0  0  0  0  0  0  0  0  0  0
   46.7860   33.1130   37.4070 C   0  0  0  0  0  0  0  0  0  0  0  0
   46.2630   33.0700   38.6730 C   0  0  0  0  0  0  0  0  0  0  0  0
   46.8930   33.8150   39.6490 C   0  0  0  0  0  0  0  0  0  0  0  0
   46.4360   33.8300   40.9530 C   0  0  0  0  0  0  0  0  0  0  0  0
   44.7770   34.0810   47.0970 C   0  0  0  0  0  0  0  0  0  0  0  0
   44.9490   32.6040   47.5090 C   0  0  0  0  0  0  0  0  0  0  0  0
   45.8580   32.4740   48.5950 N   0  0  0  0  0  0  0  0  0  0  0  0
   45.5330   31.3540   49.4680 C   0  0  0  0  0  0  0  0  0  0  0  0
   46.1670   30.0740   48.9220 C   0  0  0  0  0  0  0  0  0  0  0  0
   47.5940   30.1090   49.0690 N   0  0  0  0  0  0  0  0  0  0  0  0
   48.0560   31.4990   49.0620 C   0  0  0  0  0  0  0  0  0  0  0  0
   47.1990   32.2880   48.0900 C   0  0  0  0  0  0  0  0  0  0  0  0
   47.7776   32.8398   43.8656 H   0  0  0  0  0  0  0  0  0  0  0  0
   45.3562   36.3856   41.8318 H   0  0  0  0  0  0  0  0  0  0  0  0
   44.1693   36.9232   43.0504 H   0  0  0  0  0  0  0  0  0  0  0  0
   48.7150   35.9166   42.2999 H   0  0  0  0  0  0  0  0  0  0  0  0
   49.5262   35.8891   39.9792 H   0  0  0  0  0  0  0  0  0  0  0  0
   48.2684   33.8460   36.0164 H   0  0  0  0  0  0  0  0  0  0  0  0
   46.2884   32.5206   36.6250 H   0  0  0  0  0  0  0  0  0  0  0  0
   45.3741   32.4642   38.9027 H   0  0  0  0  0  0  0  0  0  0  0  0
   45.5495   33.2374   41.2231 H   0  0  0  0  0  0  0  0  0  0  0  0
   45.3032   34.7293   47.8131 H   0  0  0  0  0  0  0  0  0  0  0  0
   43.7100   34.3483   47.0923 H   0  0  0  0  0  0  0  0  0  0  0  0
   43.9712   32.1994   47.8095 H   0  0  0  0  0  0  0  0  0  0  0  0
   45.3522   32.0481   46.6497 H   0  0  0  0  0  0  0  0  0  0  0  0
   45.9217   31.5526   50.4777 H   0  0  0  0  0  0  0  0  0  0  0  0
   44.4408   31.2301   49.5103 H   0  0  0  0  0  0  0  0  0  0  0  0
   45.9167   29.9742   47.8555 H   0  0  0  0  0  0  0  0  0  0  0  0
   45.7752   29.2169   49.4893 H   0  0  0  0  0  0  0  0  0  0  0  0
   47.8576   29.6649   49.9602 H   0  0  0  0  0  0  0  0  0  0  0  0
   47.9612   31.9263   50.0712 H   0  0  0  0  0  0  0  0  0  0  0  0
   49.1113   31.5431   48.7546 H   0  0  0  0  0  0  0  0  0  0  0  0
   47.1489   31.7442   47.1352 H   0  0  0  0  0  0  0  0  0  0  0  0
   47.6563   33.2790   47.9534 H   0  0  0  0  0  0  0  0  0  0  0  0
  1  6  2  0
  2  1  1  0
  2  3  2  0
  3  4  1  0
  4  5  2  0
  5 18  1  0
  6  5  1  0
  7  1  1  0
  8  2  1  0
  9  8  2  0
 10  9  1  0
 11 16  1  0
 11 10  2  0
 12 11  1  0
 13 14  1  0
 13 12  2  0
 14 15  2  0
 15 16  1  0
 16 17  2  0
 17  8  1  0
 18 19  1  0
 19 20  1  0
 20 21  1  0
 22 23  1  0
 22 21  1  0
 24 23  1  0
 25 20  1  0
 25 24  1  0
  3 26  1  0
  7 27  1  0
  7 28  1  0
  9 29  1  0
 10 30  1  0
 13 31  1  0
 14 32  1  0
 15 33  1  0
 17 34  1  0
 18 35  1  0
 18 36  1  0
 19 37  1  0
 19 38  1  0
 21 39  1  0
 21 40  1  0
 22 41  1  0
 22 42  1  0
 23 43  1  0
 24 44  1  0
 24 45  1  0
 25 46  1  0
 25 47  1  0
M  ISO  8  26  14  29  14  30  14  31  14  32  14  33  14  34  14  35   8
M  ISO  8  36   8  37   8  38   8  39  13  40  13  41  13  42  13  43   5
M  ISO  4  44  13  45  13  46  13  47  13
M  END
>  <minimizedAffinity>  (1) 
-6.43203974

>  <minimizedRMSD>  (1) 
0.909916043

$$$$
