
     RDKit          3D

 20 20  0  0  0  0  0  0  0  0999 V2000
   46.2670   33.7630   42.0560 O   0  0  0  0  0  0  0  0  0  0  0  0
   44.7250   36.3800   44.0770 C   0  0  0  0  0  0  0  0  0  0  0  0
   45.2850   35.7150   42.9680 C   0  0  0  0  0  0  0  0  0  0  0  0
   45.7160   34.4000   43.1690 C   0  0  0  0  0  0  0  0  0  0  0  0
   45.5780   33.8340   44.3950 N   0  0  0  0  0  0  0  0  0  0  0  0
   45.0380   34.5010   45.4310 C   0  0  0  0  0  0  0  0  0  0  0  0
   44.6150   35.7690   45.2670 N   0  0  0  0  0  0  0  0  0  0  0  0
   47.8620   31.7070   41.5940 O   0  0  0  0  0  0  0  0  0  0  0  0
   47.8500   33.0940   42.1980 P   0  0  2  0  0  0  0  0  0  0  0  0
   48.2090   32.9790   43.8430 O   0  0  0  0  0  0  0  0  0  0  0  0
   48.9210   34.1130   41.4010 O   0  0  0  0  0  0  0  0  0  0  0  0
   49.4220   35.3030   41.9140 C   0  0  0  0  0  0  0  0  0  0  0  0
   49.1440   36.3500   41.3040 O   0  0  0  0  0  0  0  0  0  0  0  0
   50.1990   35.0740   43.1060 N   0  0  0  0  0  0  0  0  0  0  0  0
   44.3725   37.4160   43.9657 H   0  0  0  0  0  0  0  0  0  0  0  0
   45.3788   36.2078   41.9890 H   0  0  0  0  0  0  0  0  0  0  0  0
   44.9420   34.0111   46.4112 H   0  0  0  0  0  0  0  0  0  0  0  0
   47.4128   33.2341   44.3731 H   0  0  0  0  0  0  0  0  0  0  0  0
   50.6342   35.8677   43.5975 H   0  0  0  0  0  0  0  0  0  0  0  0
   50.3191   34.1166   43.4664 H   0  0  0  0  0  0  0  0  0  0  0  0
  1  9  1  0
  1  4  1  0
  2  7  2  0
  3  4  2  0
  3  2  1  0
  4  5  1  0
  5  6  2  0
  7  6  1  0
  9  8  2  0
  9 10  1  0
 11 12  1  0
 11  9  1  0
 12 14  1  0
 13 12  2  0
  2 15  1  0
  3 16  1  0
  6 17  1  0
 10 18  1  0
 14 19  1  0
 14 20  1  0
M  ISO  4  15  14  16  14  17  14  18   3
M  END
>  <minimizedAffinity>  (1) 
-4.39021397

>  <minimizedRMSD>  (1) 
1.74943721

$$$$
