
     RDKit          3D

 43 46  0  0  1  0  0  0  0  0999 V2000
   48.4110   31.5060   48.5860 C   0  0  0  0  0  0  0  0  0  0  0  0
   49.2090   32.1940   49.3280 O   0  0  0  0  0  0  0  0  0  0  0  0
   49.2010   30.3450   48.8320 N   0  0  0  0  0  0  0  0  0  0  0  0
   49.1110   29.4730   47.6740 C   0  0  0  0  0  0  0  0  0  0  0  0
   49.8810   28.2190   48.0300 C   0  0  0  0  0  0  0  0  0  0  0  0
   49.5700   27.8180   49.4060 N   0  0  0  0  0  0  0  0  0  0  0  0
   50.3720   28.6880   50.2330 C   0  0  0  0  0  0  0  0  0  0  0  0
   49.9620   30.0870   50.0400 C   0  0  1  0  0  0  0  0  0  0  0  0
   51.1370   30.9340   49.9510 N   0  0  0  0  0  0  0  0  0  0  0  0
   51.9620   30.9660   48.8910 C   0  0  0  0  0  0  0  0  0  0  0  0
   52.9730   31.8370   49.0660 N   0  0  0  0  0  0  0  0  0  0  0  0
   52.8050   32.3980   50.2890 C   0  0  0  0  0  0  0  0  0  0  0  0
   53.5030   33.3390   51.0120 C   0  0  0  0  0  0  0  0  0  0  0  0
   53.0320   33.6740   52.2440 N   0  0  0  0  0  0  0  0  0  0  0  0
   51.9180   33.1020   52.7390 C   0  0  0  0  0  0  0  0  0  0  0  0
   51.1980   32.1680   52.0570 N   0  0  0  0  0  0  0  0  0  0  0  0
   51.6550   31.8220   50.8230 C   0  0  0  0  0  0  0  0  0  0  0  0
   47.3970   32.2440   48.0710 O   0  0  0  0  0  0  0  0  0  0  0  0
   45.2320   30.8440   47.5110 O   0  0  0  0  0  0  0  0  0  0  0  0
   45.7570   32.0920   48.2600 P   0  0  1  0  0  0  0  0  0  0  0  0
   45.3210   31.8740   49.8670 O   0  0  0  0  0  0  0  0  0  0  0  0
   44.9760   33.4390   47.6000 O   0  0  0  0  0  0  0  0  0  0  0  0
   46.5470   33.6410   44.3380 C   0  0  0  0  0  0  0  0  0  0  0  0
   46.2050   33.2180   45.6470 C   0  0  0  0  0  0  0  0  0  0  0  0
   45.2510   33.9070   46.3430 C   0  0  0  0  0  0  0  0  0  0  0  0
   44.6610   34.9800   45.7530 N   0  0  0  0  0  0  0  0  0  0  0  0
   44.9900   35.3740   44.5160 C   0  0  0  0  0  0  0  0  0  0  0  0
   45.9220   34.7200   43.8020 N   0  0  0  0  0  0  0  0  0  0  0  0
   49.5589   29.9590   46.7947 H   0  0  0  0  0  0  0  0  0  0  0  0
   48.0644   29.2440   47.4245 H   0  0  0  0  0  0  0  0  0  0  0  0
   49.5986   27.4093   47.3411 H   0  0  0  0  0  0  0  0  0  0  0  0
   50.9593   28.4190   47.9452 H   0  0  0  0  0  0  0  0  0  0  0  0
   48.5681   27.9502   49.6049 H   0  0  0  0  0  0  0  0  0  0  0  0
   50.2376   28.4118   51.2892 H   0  0  0  0  0  0  0  0  0  0  0  0
   51.4295   28.5801   49.9499 H   0  0  0  0  0  0  0  0  0  0  0  0
   49.3207   30.3029   50.9073 H   0  0  0  0  0  0  0  0  0  0  0  0
   51.8272   30.3532   47.9875 H   0  0  0  0  0  0  0  0  0  0  0  0
   54.4129   33.8055   50.6065 H   0  0  0  0  0  0  0  0  0  0  0  0
   51.5737   33.4026   53.7396 H   0  0  0  0  0  0  0  0  0  0  0  0
   46.0342   32.2306   50.4537 H   0  0  0  0  0  0  0  0  0  0  0  0
   47.3119   33.0997   43.7619 H   0  0  0  0  0  0  0  0  0  0  0  0
   46.7013   32.3458   46.0975 H   0  0  0  0  0  0  0  0  0  0  0  0
   44.4883   36.2487   44.0765 H   0  0  0  0  0  0  0  0  0  0  0  0
  1  3  1  0
  1  2  2  0
  3  8  1  0
  4  5  1  0
  4  3  1  0
  5  6  1  0
  6  7  1  0
  8  7  1  0
  9  8  1  0
  9 17  1  0
 10 11  2  0
 10  9  1  0
 11 12  1  0
 12 17  2  0
 12 13  1  0
 13 14  2  0
 14 15  1  0
 16 15  2  0
 17 16  1  0
 18 20  1  0
 18  1  1  0
 20 19  2  0
 20 21  1  0
 22 20  1  0
 23 24  2  0
 24 25  1  0
 25 22  1  0
 26 25  2  0
 27 26  1  0
 28 23  1  0
 28 27  2  0
  4 29  1  0
  4 30  1  0
  5 31  1  0
  5 32  1  0
  6 33  1  0
  7 34  1  0
  7 35  1  0
  8 36  1  1
 10 37  1  0
 13 38  1  0
 15 39  1  0
 21 40  1  0
 23 41  1  0
 24 42  1  0
 27 43  1  0
M  ISO  8  29  13  30  13  31  13  32  13  33   5  34  13  35  13  36  13
M  ISO  7  37  14  38  14  39  14  40   3  41  14  42  14  43  14
M  END
>  <minimizedAffinity>  (1) 
-6.38531637

>  <minimizedRMSD>  (1) 
0.661710858

$$$$
