
     RDKit          3D

 45 47  0  0  1  0  0  0  0  0999 V2000
   48.6130   31.4350   48.7910 C   0  0  0  0  0  0  0  0  0  0  0  0
   49.5890   32.0380   49.3430 O   0  0  0  0  0  0  0  0  0  0  0  0
   49.3260   30.2070   48.9030 N   0  0  0  0  0  0  0  0  0  0  0  0
   48.9320   29.3340   47.8060 C   0  0  0  0  0  0  0  0  0  0  0  0
   49.6380   28.0210   48.0420 C   0  0  0  0  0  0  0  0  0  0  0  0
   49.5530   27.6470   49.4500 N   0  0  0  0  0  0  0  0  0  0  0  0
   50.5550   28.4350   50.1330 C   0  0  0  0  0  0  0  0  0  0  0  0
   50.2880   29.8790   49.9400 C   0  0  1  0  0  0  0  0  0  0  0  0
   52.0530   31.5120   50.7380 C   0  0  0  0  0  0  0  0  0  0  0  0
   51.4950   30.7160   49.7640 C   0  0  0  0  0  0  0  0  0  0  0  0
   52.1220   30.7060   48.5250 C   0  0  0  0  0  0  0  0  0  0  0  0
   53.2680   31.4570   48.2450 C   0  0  0  0  0  0  0  0  0  0  0  0
   53.7680   32.2350   49.2840 C   0  0  0  0  0  0  0  0  0  0  0  0
   53.1830   32.2820   50.5370 C   0  0  0  0  0  0  0  0  0  0  0  0
   51.2920   31.5480   52.3060 S   0  0  0  0  0  0  0  0  0  0  0  0
   51.5680   32.8630   53.0210 O   0  0  0  0  0  0  0  0  0  0  0  0
   51.8930   30.4850   53.2130 O   0  0  0  0  0  0  0  0  0  0  0  0
   47.5770   32.2530   48.4580 O   0  0  0  0  0  0  0  0  0  0  0  0
   45.6240   30.6510   47.7070 O   0  0  0  0  0  0  0  0  0  0  0  0
   45.9420   31.9740   48.4250 P   0  0  1  0  0  0  0  0  0  0  0  0
   45.3080   31.8150   49.9680 O   0  0  0  0  0  0  0  0  0  0  0  0
   45.1600   33.2140   47.5880 O   0  0  0  0  0  0  0  0  0  0  0  0
   46.9990   33.2040   44.4630 C   0  0  0  0  0  0  0  0  0  0  0  0
   46.5650   32.8710   45.7660 C   0  0  0  0  0  0  0  0  0  0  0  0
   45.5390   33.5880   46.3100 C   0  0  0  0  0  0  0  0  0  0  0  0
   44.9730   34.5870   45.5980 N   0  0  0  0  0  0  0  0  0  0  0  0
   45.3980   34.8900   44.3590 C   0  0  0  0  0  0  0  0  0  0  0  0
   46.4010   34.2110   43.7870 N   0  0  0  0  0  0  0  0  0  0  0  0
   49.2422   29.7667   46.8434 H   0  0  0  0  0  0  0  0  0  0  0  0
   47.8405   29.2025   47.7690 H   0  0  0  0  0  0  0  0  0  0  0  0
   49.1649   27.2393   47.4296 H   0  0  0  0  0  0  0  0  0  0  0  0
   50.6967   28.1285   47.7633 H   0  0  0  0  0  0  0  0  0  0  0  0
   48.6160   27.8601   49.8210 H   0  0  0  0  0  0  0  0  0  0  0  0
   50.5309   28.2013   51.2076 H   0  0  0  0  0  0  0  0  0  0  0  0
   51.5452   28.1942   49.7189 H   0  0  0  0  0  0  0  0  0  0  0  0
   49.8288   30.1312   50.9072 H   0  0  0  0  0  0  0  0  0  0  0  0
   51.6978   30.0786   47.7272 H   0  0  0  0  0  0  0  0  0  0  0  0
   53.7484   31.4337   47.2557 H   0  0  0  0  0  0  0  0  0  0  0  0
   54.6685   32.8398   49.1014 H   0  0  0  0  0  0  0  0  0  0  0  0
   53.6003   32.9068   51.3405 H   0  0  0  0  0  0  0  0  0  0  0  0
   49.9534   31.3571   52.0859 H   0  0  0  0  0  0  0  0  0  0  0  0
   46.0168   31.9928   50.6359 H   0  0  0  0  0  0  0  0  0  0  0  0
   47.8238   32.6437   43.9984 H   0  0  0  0  0  0  0  0  0  0  0  0
   47.0421   32.0544   46.3277 H   0  0  0  0  0  0  0  0  0  0  0  0
   44.9143   35.7087   43.8061 H   0  0  0  0  0  0  0  0  0  0  0  0
  1  3  1  0
  1  2  2  0
  3  8  1  0
  4  5  1  0
  4  3  1  0
  5  6  1  0
  6  7  1  0
  8  7  1  0
  9 15  1  0
 10  8  1  0
 10  9  2  0
 11 10  1  0
 12 11  2  0
 12 13  1  0
 13 14  2  0
 14  9  1  0
 15 16  2  0
 15 17  2  0
 18  1  1  0
 20 19  2  0
 20 18  1  0
 20 21  1  0
 22 20  1  0
 23 24  2  0
 24 25  1  0
 25 22  1  0
 26 25  2  0
 27 26  1  0
 28 27  2  0
 28 23  1  0
  4 29  1  0
  4 30  1  0
  5 31  1  0
  5 32  1  0
  6 33  1  0
  7 34  1  0
  7 35  1  0
  8 36  1  1
 11 37  1  0
 12 38  1  0
 13 39  1  0
 14 40  1  0
 15 41  1  0
 21 42  1  0
 23 43  1  0
 24 44  1  0
 27 45  1  0
M  ISO  8  29  13  30  13  31  13  32  13  33   5  34  13  35  13  36  13
M  ISO  8  37  14  38  14  39  14  40  14  41  11  42   3  43  14  44  14
M  ISO  1  45  14
M  END
>  <minimizedAffinity>  (1) 
-6.06084538

>  <minimizedRMSD>  (1) 
0.640673995

$$$$
