
     RDKit          3D

 39 41  0  0  1  0  0  0  0  0999 V2000
   48.2830   31.2860   48.5310 C   0  0  0  0  0  0  0  0  0  0  0  0
   48.8310   32.2780   49.1350 O   0  0  0  0  0  0  0  0  0  0  0  0
   49.2630   30.4120   49.0980 N   0  0  0  0  0  0  0  0  0  0  0  0
   49.4850   29.3120   48.1790 C   0  0  0  0  0  0  0  0  0  0  0  0
   50.4610   28.3850   48.8700 C   0  0  0  0  0  0  0  0  0  0  0  0
   50.0720   28.2260   50.2850 N   0  0  0  0  0  0  0  0  0  0  0  0
   50.5540   29.3980   50.9510 C   0  0  0  0  0  0  0  0  0  0  0  0
   49.9120   30.6160   50.3820 C   0  0  1  0  0  0  0  0  0  0  0  0
   50.9410   31.6930   50.3070 C   0  0  0  0  0  0  0  0  0  0  0  0
   51.9580   31.7840   49.3500 C   0  0  0  0  0  0  0  0  0  0  0  0
   52.7280   32.8710   49.5480 N   0  0  0  0  0  0  0  0  0  0  0  0
   52.2090   33.4770   50.6320 C   0  0  0  0  0  0  0  0  0  0  0  0
   51.1520   32.7760   51.0770 N   0  0  0  0  0  0  0  0  0  0  0  0
   47.2030   31.6360   47.7860 O   0  0  0  0  0  0  0  0  0  0  0  0
   44.7150   30.7660   47.6850 O   0  0  0  0  0  0  0  0  0  0  0  0
   45.6270   31.8990   48.2240 P   0  0  1  0  0  0  0  0  0  0  0  0
   45.4340   31.8860   49.8860 O   0  0  0  0  0  0  0  0  0  0  0  0
   45.0750   33.3480   47.5690 O   0  0  0  0  0  0  0  0  0  0  0  0
   46.7870   33.4030   44.3690 C   0  0  0  0  0  0  0  0  0  0  0  0
   46.3990   33.0460   45.6850 C   0  0  0  0  0  0  0  0  0  0  0  0
   45.4000   33.7470   46.2970 C   0  0  0  0  0  0  0  0  0  0  0  0
   44.8150   34.7690   45.6120 N   0  0  0  0  0  0  0  0  0  0  0  0
   45.2000   35.0950   44.3610 C   0  0  0  0  0  0  0  0  0  0  0  0
   46.1690   34.4250   43.7460 N   0  0  0  0  0  0  0  0  0  0  0  0
   49.9117   29.6822   47.2351 H   0  0  0  0  0  0  0  0  0  0  0  0
   48.5452   28.7969   47.9310 H   0  0  0  0  0  0  0  0  0  0  0  0
   50.4482   27.4034   48.3738 H   0  0  0  0  0  0  0  0  0  0  0  0
   51.4735   28.8113   48.8141 H   0  0  0  0  0  0  0  0  0  0  0  0
   49.0478   28.1593   50.3710 H   0  0  0  0  0  0  0  0  0  0  0  0
   50.3169   29.3298   52.0230 H   0  0  0  0  0  0  0  0  0  0  0  0
   51.6427   29.4679   50.8100 H   0  0  0  0  0  0  0  0  0  0  0  0
   49.0904   30.9034   51.0546 H   0  0  0  0  0  0  0  0  0  0  0  0
   52.1096   31.0582   48.5374 H   0  0  0  0  0  0  0  0  0  0  0  0
   53.5393   33.1735   48.9901 H   0  0  0  0  0  0  0  0  0  0  0  0
   52.5913   34.4039   51.0844 H   0  0  0  0  0  0  0  0  0  0  0  0
   46.3210   31.9457   50.3217 H   0  0  0  0  0  0  0  0  0  0  0  0
   47.5886   32.8483   43.8593 H   0  0  0  0  0  0  0  0  0  0  0  0
   46.8965   32.2149   46.2063 H   0  0  0  0  0  0  0  0  0  0  0  0
   44.7042   35.9284   43.8418 H   0  0  0  0  0  0  0  0  0  0  0  0
  1  3  1  0
  1  2  2  0
  3  8  1  0
  4  5  1  0
  4  3  1  0
  5  6  1  0
  6  7  1  0
  8  7  1  0
  9  8  1  0
  9 13  1  0
 10 11  1  0
 10  9  2  0
 11 12  1  0
 12 13  2  0
 14 16  1  0
 14  1  1  0
 16 15  2  0
 16 17  1  0
 18 16  1  0
 19 20  2  0
 20 21  1  0
 21 18  1  0
 22 21  2  0
 23 22  1  0
 24 23  2  0
 24 19  1  0
  4 25  1  0
  4 26  1  0
  5 27  1  0
  5 28  1  0
  6 29  1  0
  7 30  1  0
  7 31  1  0
  8 32  1  1
 10 33  1  0
 11 34  1  0
 12 35  1  0
 17 36  1  0
 19 37  1  0
 20 38  1  0
 23 39  1  0
M  ISO  8  25  13  26  13  27  13  28  13  29   5  30  13  31  13  32  13
M  ISO  7  33  14  34   9  35  14  36   3  37  14  38  14  39  14
M  END
>  <minimizedAffinity>  (1) 
-5.96060276

>  <minimizedRMSD>  (1) 
1.13293064

$$$$
