
     RDKit          3D

 44 46  0  0  1  0  0  0  0  0999 V2000
   48.5520   31.2970   48.8620 C   0  0  0  0  0  0  0  0  0  0  0  0
   49.3370   31.8700   49.6830 O   0  0  0  0  0  0  0  0  0  0  0  0
   49.3010   30.0930   49.0000 N   0  0  0  0  0  0  0  0  0  0  0  0
   49.2210   29.3590   47.7520 C   0  0  0  0  0  0  0  0  0  0  0  0
   49.9540   28.0550   47.9960 C   0  0  0  0  0  0  0  0  0  0  0  0
   49.5730   27.5050   49.3050 N   0  0  0  0  0  0  0  0  0  0  0  0
   50.3450   28.2450   50.2750 C   0  0  0  0  0  0  0  0  0  0  0  0
   50.0180   29.6830   50.1880 C   0  0  1  0  0  0  0  0  0  0  0  0
   51.0630   30.5940   50.4090 N   0  0  0  0  0  0  0  0  0  0  0  0
   50.8540   31.8550   50.9380 C   0  0  0  0  0  0  0  0  0  0  0  0
   51.7880   32.7650   50.1390 C   0  0  0  0  0  0  0  0  0  0  0  0
   52.3910   31.9030   49.0660 C   0  0  0  0  0  0  0  0  0  0  0  0
   52.2360   30.5060   49.6360 C   0  0  0  0  0  0  0  0  0  0  0  0
   47.5660   32.1190   48.3980 O   0  0  0  0  0  0  0  0  0  0  0  0
   45.5140   30.6260   47.6750 O   0  0  0  0  0  0  0  0  0  0  0  0
   45.9180   31.9170   48.3980 P   0  0  1  0  0  0  0  0  0  0  0  0
   45.3030   31.7910   49.9530 O   0  0  0  0  0  0  0  0  0  0  0  0
   45.2020   33.2190   47.5850 O   0  0  0  0  0  0  0  0  0  0  0  0
   47.0330   33.1670   44.4530 C   0  0  0  0  0  0  0  0  0  0  0  0
   46.5860   32.8670   45.7670 C   0  0  0  0  0  0  0  0  0  0  0  0
   45.5610   33.5830   46.3150 C   0  0  0  0  0  0  0  0  0  0  0  0
   44.9890   34.5740   45.5820 N   0  0  0  0  0  0  0  0  0  0  0  0
   45.4200   34.8530   44.3360 C   0  0  0  0  0  0  0  0  0  0  0  0
   46.4140   34.1760   43.7730 N   0  0  0  0  0  0  0  0  0  0  0  0
   49.7045   29.9252   46.9423 H   0  0  0  0  0  0  0  0  0  0  0  0
   48.1779   29.1878   47.4476 H   0  0  0  0  0  0  0  0  0  0  0  0
   49.6905   27.3352   47.2071 H   0  0  0  0  0  0  0  0  0  0  0  0
   51.0381   28.2406   47.9825 H   0  0  0  0  0  0  0  0  0  0  0  0
   48.5651   27.6368   49.4711 H   0  0  0  0  0  0  0  0  0  0  0  0
   50.1096   27.8781   51.2849 H   0  0  0  0  0  0  0  0  0  0  0  0
   51.4162   28.1045   50.0681 H   0  0  0  0  0  0  0  0  0  0  0  0
   49.3438   29.7420   51.0552 H   0  0  0  0  0  0  0  0  0  0  0  0
   49.8060   32.1626   50.8075 H   0  0  0  0  0  0  0  0  0  0  0  0
   51.0556   31.8939   52.0187 H   0  0  0  0  0  0  0  0  0  0  0  0
   51.2213   33.5938   49.6896 H   0  0  0  0  0  0  0  0  0  0  0  0
   52.5630   33.2091   50.7810 H   0  0  0  0  0  0  0  0  0  0  0  0
   53.4507   32.1512   48.9064 H   0  0  0  0  0  0  0  0  0  0  0  0
   51.9128   32.0296   48.0835 H   0  0  0  0  0  0  0  0  0  0  0  0
   52.1222   29.7639   48.8321 H   0  0  0  0  0  0  0  0  0  0  0  0
   53.1103   30.1824   50.2199 H   0  0  0  0  0  0  0  0  0  0  0  0
   46.0299   31.9399   50.6084 H   0  0  0  0  0  0  0  0  0  0  0  0
   47.8572   32.6007   43.9946 H   0  0  0  0  0  0  0  0  0  0  0  0
   47.0642   32.0601   46.3416 H   0  0  0  0  0  0  0  0  0  0  0  0
   44.9357   35.6628   43.7705 H   0  0  0  0  0  0  0  0  0  0  0  0
  1  3  1  0
  1  2  2  0
  3  8  1  0
  4  5  1  0
  4  3  1  0
  5  6  1  0
  6  7  1  0
  8  7  1  0
  8  9  1  0
  9 10  1  0
 11 10  1  0
 12 13  1  0
 12 11  1  0
 13  9  1  0
 14 16  1  0
 14  1  1  0
 16 15  2  0
 16 17  1  0
 18 16  1  0
 19 20  2  0
 20 21  1  0
 21 18  1  0
 22 21  2  0
 23 22  1  0
 24 23  2  0
 24 19  1  0
  4 25  1  0
  4 26  1  0
  5 27  1  0
  5 28  1  0
  6 29  1  0
  7 30  1  0
  7 31  1  0
  8 32  1  1
 10 33  1  0
 10 34  1  0
 11 35  1  0
 11 36  1  0
 12 37  1  0
 12 38  1  0
 13 39  1  0
 13 40  1  0
 17 41  1  0
 19 42  1  0
 20 43  1  0
 23 44  1  0
M  ISO  8  25  13  26  13  27  13  28  13  29   5  30  13  31  13  32  13
M  ISO  8  33  13  34  13  35  13  36  13  37  13  38  13  39  13  40  13
M  ISO  4  41   3  42  14  43  14  44  14
M  END
>  <minimizedAffinity>  (1) 
-5.89939356

>  <minimizedRMSD>  (1) 
0.576327503

$$$$
