
     RDKit          3D

 34 35  0  0  1  0  0  0  0  0999 V2000
   48.4790   31.1730   48.6540 C   0  0  0  0  0  0  0  0  0  0  0  0
   49.5990   31.6530   49.0390 O   0  0  0  0  0  0  0  0  0  0  0  0
   49.0750   29.8840   48.5930 N   0  0  0  0  0  0  0  0  0  0  0  0
   48.4190   29.1150   47.5440 C   0  0  0  0  0  0  0  0  0  0  0  0
   49.0310   27.7290   47.5980 C   0  0  0  0  0  0  0  0  0  0  0  0
   49.1590   27.2920   48.9960 N   0  0  0  0  0  0  0  0  0  0  0  0
   50.3460   27.9470   49.4840 C   0  0  0  0  0  0  0  0  0  0  0  0
   50.1600   29.4180   49.4420 C   0  0  2  0  0  0  0  0  0  0  0  0
   49.8880   29.9640   50.8040 C   0  0  0  0  0  0  0  0  0  0  0  0
   50.3620   29.4640   51.8000 O   0  0  0  0  0  0  0  0  0  0  0  0
   47.4940   32.1000   48.5470 O   0  0  0  0  0  0  0  0  0  0  0  0
   45.4500   30.6210   47.7750 O   0  0  0  0  0  0  0  0  0  0  0  0
   45.8490   31.9230   48.5000 P   0  0  1  0  0  0  0  0  0  0  0  0
   45.1950   31.8050   50.0480 O   0  0  0  0  0  0  0  0  0  0  0  0
   45.1480   33.2100   47.6620 O   0  0  0  0  0  0  0  0  0  0  0  0
   47.0050   33.0920   44.5500 C   0  0  0  0  0  0  0  0  0  0  0  0
   46.5520   32.8040   45.8620 C   0  0  0  0  0  0  0  0  0  0  0  0
   45.5330   33.5440   46.3910 C   0  0  0  0  0  0  0  0  0  0  0  0
   44.9780   34.5420   45.6400 N   0  0  0  0  0  0  0  0  0  0  0  0
   45.4160   34.8020   44.4020 C   0  0  0  0  0  0  0  0  0  0  0  0
   46.4170   34.0950   43.8490 N   0  0  0  0  0  0  0  0  0  0  0  0
   48.6011   29.5754   46.5617 H   0  0  0  0  0  0  0  0  0  0  0  0
   47.3294   29.0806   47.6907 H   0  0  0  0  0  0  0  0  0  0  0  0
   48.3858   27.0240   47.0532 H   0  0  0  0  0  0  0  0  0  0  0  0
   50.0282   27.7554   47.1343 H   0  0  0  0  0  0  0  0  0  0  0  0
   48.3353   27.5811   49.5426 H   0  0  0  0  0  0  0  0  0  0  0  0
   50.5371   27.6323   50.5206 H   0  0  0  0  0  0  0  0  0  0  0  0
   51.2010   27.6702   48.8497 H   0  0  0  0  0  0  0  0  0  0  0  0
   51.1093   29.7791   49.0197 H   0  0  0  0  0  0  0  0  0  0  0  0
   49.2384   30.8458   50.9062 H   0  0  0  0  0  0  0  0  0  0  0  0
   45.9109   31.9342   50.7194 H   0  0  0  0  0  0  0  0  0  0  0  0
   47.8244   32.5089   44.1045 H   0  0  0  0  0  0  0  0  0  0  0  0
   47.0150   31.9952   46.4464 H   0  0  0  0  0  0  0  0  0  0  0  0
   44.9466   35.6120   43.8244 H   0  0  0  0  0  0  0  0  0  0  0  0
  1  2  2  0
  3  1  1  0
  3  8  1  0
  4  5  1  0
  4  3  1  0
  5  6  1  0
  6  7  1  0
  8  7  1  0
  8  9  1  0
  9 10  2  0
 11  1  1  0
 13 12  2  0
 13 11  1  0
 13 14  1  0
 15 13  1  0
 16 17  2  0
 17 18  1  0
 18 15  1  0
 19 18  2  0
 20 19  1  0
 21 20  2  0
 21 16  1  0
  4 22  1  0
  4 23  1  0
  5 24  1  0
  5 25  1  0
  6 26  1  0
  7 27  1  0
  7 28  1  0
  8 29  1  6
  9 30  1  0
 14 31  1  0
 16 32  1  0
 17 33  1  0
 20 34  1  0
M  ISO  8  22  13  23  13  24  13  25  13  26   5  27  13  28  13  29  13
M  ISO  5  30   6  31   3  32  14  33  14  34  14
M  END
>  <minimizedAffinity>  (1) 
-5.23707628

>  <minimizedRMSD>  (1) 
0.494734973

$$$$
