
     RDKit          3D

 21 22  0  0  0  0  0  0  0  0999 V2000
   44.7020   32.5210   41.8240 Cl  0  0  0  0  0  0  0  0  0  0  0  0
   46.0500   33.5400   41.4210 C   0  0  0  0  0  0  0  0  0  0  0  0
   46.5490   34.4500   42.3070 C   0  0  0  0  0  0  0  0  0  0  0  0
   47.6260   35.2150   41.8940 C   0  0  0  0  0  0  0  0  0  0  0  0
   48.1700   35.0670   40.6520 C   0  0  0  0  0  0  0  0  0  0  0  0
   47.6780   34.1590   39.7630 C   0  0  0  0  0  0  0  0  0  0  0  0
   46.6110   33.4020   40.1700 C   0  0  0  0  0  0  0  0  0  0  0  0
   44.4390   35.6520   45.2110 C   0  0  0  0  0  0  0  0  0  0  0  0
   45.0140   35.5850   43.9330 C   0  0  0  0  0  0  0  0  0  0  0  0
   45.9210   34.5620   43.6270 C   0  0  0  0  0  0  0  0  0  0  0  0
   46.1830   33.6840   44.6130 N   0  0  0  0  0  0  0  0  0  0  0  0
   45.6250   33.7650   45.8220 C   0  0  0  0  0  0  0  0  0  0  0  0
   44.7540   34.7450   46.1270 N   0  0  0  0  0  0  0  0  0  0  0  0
   49.2520   35.9170   40.3940 O   0  0  0  0  0  0  0  0  0  0  0  0
   48.0527   35.9589   42.5828 H   0  0  0  0  0  0  0  0  0  0  0  0
   48.1183   34.0390   38.7621 H   0  0  0  0  0  0  0  0  0  0  0  0
   46.1887   32.6604   39.4760 H   0  0  0  0  0  0  0  0  0  0  0  0
   43.7279   36.4555   45.4534 H   0  0  0  0  0  0  0  0  0  0  0  0
   44.7529   36.3350   43.1719 H   0  0  0  0  0  0  0  0  0  0  0  0
   45.8819   33.0157   46.5853 H   0  0  0  0  0  0  0  0  0  0  0  0
   49.7115   35.8814   39.5178 H   0  0  0  0  0  0  0  0  0  0  0  0
  2  1  1  0
  2  3  2  0
  3 10  1  0
  4  3  1  0
  5  4  2  0
  6  7  2  0
  6  5  1  0
  7  2  1  0
  8 13  2  0
  9  8  1  0
 10  9  2  0
 10 11  1  0
 11 12  2  0
 12 13  1  0
 14  5  1  0
  4 15  1  0
  6 16  1  0
  7 17  1  0
  8 18  1  0
  9 19  1  0
 12 20  1  0
 14 21  1  0
M  ISO  7  15  14  16  14  17  14  18  14  19  14  20  14  21   3
M  END
>  <minimizedAffinity>  (1) 
-4.88946724

>  <minimizedRMSD>  (1) 
0.558657527

$$$$
