
     RDKit          3D

 35 37  0  0  0  0  0  0  0  0999 V2000
   45.2620   33.3850   47.0760 C   0  0  0  0  0  0  0  0  0  0  0  0
   45.4750   33.8290   45.7710 C   0  0  0  0  0  0  0  0  0  0  0  0
   46.3890   33.2470   44.9210 C   0  0  0  0  0  0  0  0  0  0  0  0
   47.0690   32.2030   45.4450 N   0  0  0  0  0  0  0  0  0  0  0  0
   46.8830   31.7550   46.7000 C   0  0  0  0  0  0  0  0  0  0  0  0
   45.9830   32.3440   47.5110 N   0  0  0  0  0  0  0  0  0  0  0  0
   44.3680   32.3450   42.9350 Cl  0  0  0  0  0  0  0  0  0  0  0  0
   45.7620   33.3350   42.5850 C   0  0  0  0  0  0  0  0  0  0  0  0
   46.6270   33.6960   43.5530 C   0  0  0  0  0  0  0  0  0  0  0  0
   47.7020   34.4820   43.1750 C   0  0  0  0  0  0  0  0  0  0  0  0
   47.8920   34.8810   41.8930 C   0  0  0  0  0  0  0  0  0  0  0  0
   47.0070   34.5090   40.9150 C   0  0  0  0  0  0  0  0  0  0  0  0
   45.9380   33.7300   41.2770 C   0  0  0  0  0  0  0  0  0  0  0  0
   49.0460   35.7260   41.4830 C   0  0  0  0  0  0  0  0  0  0  0  0
   50.1990   35.0880   41.8590 F   0  0  0  0  0  0  0  0  0  0  0  0
   48.9560   36.9980   42.0280 F   0  0  0  0  0  0  0  0  0  0  0  0
   49.0100   35.8620   40.1020 F   0  0  0  0  0  0  0  0  0  0  0  0
   48.2420   30.7060   48.4610 C   0  0  0  0  0  0  0  0  0  0  0  0
   47.6560   30.6180   47.2050 C   0  0  0  0  0  0  0  0  0  0  0  0
   47.8030   29.4740   46.4460 C   0  0  0  0  0  0  0  0  0  0  0  0
   48.5340   28.3690   46.8920 C   0  0  0  0  0  0  0  0  0  0  0  0
   49.0850   28.5310   48.1470 C   0  0  0  0  0  0  0  0  0  0  0  0
   48.9810   29.6370   48.9580 C   0  0  0  0  0  0  0  0  0  0  0  0
   48.0900   31.8580   49.2150 O   0  0  0  0  0  0  0  0  0  0  0  0
   49.5870   29.6760   50.2080 O   0  0  0  0  0  0  0  0  0  0  0  0
   44.5241   33.8752   47.7280 H   0  0  0  0  0  0  0  0  0  0  0  0
   44.8863   34.6827   45.4041 H   0  0  0  0  0  0  0  0  0  0  0  0
   48.4272   34.7937   43.9411 H   0  0  0  0  0  0  0  0  0  0  0  0
   47.1498   34.8257   39.8713 H   0  0  0  0  0  0  0  0  0  0  0  0
   45.2115   33.4164   40.5129 H   0  0  0  0  0  0  0  0  0  0  0  0
   47.3279   29.4305   45.4549 H   0  0  0  0  0  0  0  0  0  0  0  0
   48.6588   27.4528   46.2962 H   0  0  0  0  0  0  0  0  0  0  0  0
   49.6692   27.6860   48.5403 H   0  0  0  0  0  0  0  0  0  0  0  0
   47.5636   32.6170   48.8587 H   0  0  0  0  0  0  0  0  0  0  0  0
   50.1059   28.8972   50.5311 H   0  0  0  0  0  0  0  0  0  0  0  0
  1  6  2  0
  2  1  1  0
  3  4  1  0
  3  2  2  0
  4  5  2  0
  5 19  1  0
  5  6  1  0
  8  7  1  0
  8  9  2  0
  9  3  1  0
 10  9  1  0
 11 10  2  0
 12 13  2  0
 12 11  1  0
 13  8  1  0
 14 15  1  0
 14 11  1  0
 14 16  1  0
 17 14  1  0
 18 23  2  0
 18 24  1  0
 19 18  1  0
 20 21  1  0
 20 19  2  0
 21 22  2  0
 22 23  1  0
 23 25  1  0
  1 26  1  0
  2 27  1  0
 10 28  1  0
 12 29  1  0
 13 30  1  0
 20 31  1  0
 21 32  1  0
 22 33  1  0
 24 34  1  0
 25 35  1  0
M  ISO  8  26  14  27  14  28  14  29  14  30  14  31  14  32  14  33  14
M  ISO  2  34   3  35   3
M  END
>  <minimizedAffinity>  (1) 
-6.56273603

>  <minimizedRMSD>  (1) 
0.910636306

$$$$
