
     RDKit          3D

 38 40  0  0  0  0  0  0  0  0999 V2000
   44.8200   33.9800   46.9380 C   0  0  0  0  0  0  0  0  0  0  0  0
   45.1350   34.2630   45.6050 C   0  0  0  0  0  0  0  0  0  0  0  0
   46.1590   33.6320   44.9280 C   0  0  0  0  0  0  0  0  0  0  0  0
   46.8600   32.7010   45.6420 N   0  0  0  0  0  0  0  0  0  0  0  0
   46.5610   32.4250   46.9280 C   0  0  0  0  0  0  0  0  0  0  0  0
   45.5510   33.0570   47.5740 N   0  0  0  0  0  0  0  0  0  0  0  0
   47.3030   31.4520   47.6570 N   0  0  0  0  0  0  0  0  0  0  0  0
   48.2700   31.8030   48.6550 C   0  0  0  0  0  0  0  0  0  0  0  0
   48.6160   30.5580   49.4370 C   0  0  0  0  0  0  0  0  0  0  0  0
   49.2330   29.5080   48.5570 C   0  0  0  0  0  0  0  0  0  0  0  0
   48.4750   29.3730   47.2540 C   0  0  0  0  0  0  0  0  0  0  0  0
   47.1060   30.0350   47.4140 C   0  0  0  0  0  0  0  0  0  0  0  0
   44.3000   32.4450   42.9210 Cl  0  0  0  0  0  0  0  0  0  0  0  0
   45.7010   33.4090   42.5610 C   0  0  0  0  0  0  0  0  0  0  0  0
   46.4990   33.9130   43.5430 C   0  0  0  0  0  0  0  0  0  0  0  0
   47.5770   34.6600   43.1320 C   0  0  0  0  0  0  0  0  0  0  0  0
   47.8580   34.8980   41.8310 C   0  0  0  0  0  0  0  0  0  0  0  0
   47.0580   34.3920   40.8450 C   0  0  0  0  0  0  0  0  0  0  0  0
   45.9780   33.6470   41.2240 C   0  0  0  0  0  0  0  0  0  0  0  0
   49.0410   35.7170   41.4110 C   0  0  0  0  0  0  0  0  0  0  0  0
   50.1740   35.0370   41.7530 F   0  0  0  0  0  0  0  0  0  0  0  0
   48.9950   36.9860   41.9560 F   0  0  0  0  0  0  0  0  0  0  0  0
   48.9890   35.8400   40.0220 F   0  0  0  0  0  0  0  0  0  0  0  0
   43.9961   34.5005   47.4482 H   0  0  0  0  0  0  0  0  0  0  0  0
   44.5411   35.0210   45.0733 H   0  0  0  0  0  0  0  0  0  0  0  0
   49.1742   32.2029   48.1728 H   0  0  0  0  0  0  0  0  0  0  0  0
   47.8601   32.5715   49.3269 H   0  0  0  0  0  0  0  0  0  0  0  0
   49.3289   30.8220   50.2320 H   0  0  0  0  0  0  0  0  0  0  0  0
   47.6878   30.1492   49.8629 H   0  0  0  0  0  0  0  0  0  0  0  0
   50.2741   29.7885   48.3393 H   0  0  0  0  0  0  0  0  0  0  0  0
   49.1940   28.5437   49.0847 H   0  0  0  0  0  0  0  0  0  0  0  0
   48.3453   28.3084   47.0095 H   0  0  0  0  0  0  0  0  0  0  0  0
   49.0348   29.8599   46.4419 H   0  0  0  0  0  0  0  0  0  0  0  0
   46.5169   29.8948   46.4957 H   0  0  0  0  0  0  0  0  0  0  0  0
   46.5649   29.5806   48.2570 H   0  0  0  0  0  0  0  0  0  0  0  0
   48.2428   35.0844   43.8979 H   0  0  0  0  0  0  0  0  0  0  0  0
   47.2765   34.5784   39.7831 H   0  0  0  0  0  0  0  0  0  0  0  0
   45.3149   33.2276   40.4530 H   0  0  0  0  0  0  0  0  0  0  0  0
  1  6  2  0
  2  1  1  0
  3  2  2  0
  3  4  1  0
  4  5  2  0
  5  6  1  0
  5  7  1  0
  7  8  1  0
  8  9  1  0
 10  9  1  0
 11 12  1  0
 11 10  1  0
 12  7  1  0
 14 13  1  0
 14 15  2  0
 15  3  1  0
 16 15  1  0
 17 16  2  0
 18 19  2  0
 18 17  1  0
 19 14  1  0
 20 21  1  0
 20 17  1  0
 20 22  1  0
 23 20  1  0
  1 24  1  0
  2 25  1  0
  8 26  1  0
  8 27  1  0
  9 28  1  0
  9 29  1  0
 10 30  1  0
 10 31  1  0
 11 32  1  0
 11 33  1  0
 12 34  1  0
 12 35  1  0
 16 36  1  0
 18 37  1  0
 19 38  1  0
M  ISO  8  24  14  25  14  26  13  27  13  28  13  29  13  30  13  31  13
M  ISO  7  32  13  33  13  34  13  35  13  36  14  37  14  38  14
M  END
>  <minimizedAffinity>  (1) 
-6.41911554

>  <minimizedRMSD>  (1) 
0.803616405

$$$$
