
     RDKit          3D

 26 27  0  0  0  0  0  0  0  0999 V2000
   44.7910   33.2070   41.2220 Cl  0  0  0  0  0  0  0  0  0  0  0  0
   46.3220   34.0000   41.0630 C   0  0  0  0  0  0  0  0  0  0  0  0
   46.8280   34.7310   42.0890 C   0  0  0  0  0  0  0  0  0  0  0  0
   48.0600   35.4020   41.9870 C   0  0  0  0  0  0  0  0  0  0  0  0
   48.7190   35.2720   40.7880 C   0  0  0  0  0  0  0  0  0  0  0  0
   48.2000   34.5280   39.7500 C   0  0  0  0  0  0  0  0  0  0  0  0
   46.9880   33.8780   39.8720 C   0  0  0  0  0  0  0  0  0  0  0  0
   45.5860   33.9810   45.4750 C   0  0  0  0  0  0  0  0  0  0  0  0
   44.6830   35.0270   45.7050 C   0  0  0  0  0  0  0  0  0  0  0  0
   44.5030   35.9840   44.6960 C   0  0  0  0  0  0  0  0  0  0  0  0
   45.2220   35.8290   43.5620 N   0  0  0  0  0  0  0  0  0  0  0  0
   46.0890   34.8250   43.3450 C   0  0  0  0  0  0  0  0  0  0  0  0
   46.2690   33.8930   44.3170 N   0  0  0  0  0  0  0  0  0  0  0  0
   46.6600   33.1980   38.7290 O   0  0  0  0  0  0  0  0  0  0  0  0
   46.7180   32.4810   36.1670 O   0  0  0  0  0  0  0  0  0  0  0  0
   47.4910   33.2030   37.2480 P   0  0  0  0  0  0  0  0  0  0  0  0
   47.6510   34.8150   36.7380 O   0  0  0  0  0  0  0  0  0  0  0  0
   49.0240   32.4900   37.3400 O   0  0  0  0  0  0  0  0  0  0  0  0
   48.4713   35.9952   42.8170 H   0  0  0  0  0  0  0  0  0  0  0  0
   49.6875   35.7756   40.6528 H   0  0  0  0  0  0  0  0  0  0  0  0
   48.7617   34.4508   38.8074 H   0  0  0  0  0  0  0  0  0  0  0  0
   45.7400   33.2187   46.2529 H   0  0  0  0  0  0  0  0  0  0  0  0
   44.1293   35.0959   46.6530 H   0  0  0  0  0  0  0  0  0  0  0  0
   43.8059   36.8255   44.8221 H   0  0  0  0  0  0  0  0  0  0  0  0
   47.7098   35.4071   37.5292 H   0  0  0  0  0  0  0  0  0  0  0  0
   49.2768   32.3724   38.2899 H   0  0  0  0  0  0  0  0  0  0  0  0
  2  1  1  0
  2  3  2  0
  3 12  1  0
  4  3  1  0
  5  4  2  0
  6  7  2  0
  6  5  1  0
  7  2  1  0
  8  9  2  0
 10  9  1  0
 11 10  2  0
 12 11  1  0
 12 13  2  0
 13  8  1  0
 14  7  1  0
 15 16  2  0
 16 18  1  0
 16 14  1  0
 17 16  1  0
  4 19  1  0
  5 20  1  0
  6 21  1  0
  8 22  1  0
  9 23  1  0
 10 24  1  0
 17 25  1  0
 18 26  1  0
M  ISO  8  19  14  20  14  21  14  22  14  23  14  24  14  25   3  26   3
M  END
>  <minimizedAffinity>  (1) 
-5.73735237

>  <minimizedRMSD>  (1) 
1.73168111

$$$$
