
     RDKit          3D

 30 32  0  0  0  0  0  0  0  0999 V2000
   44.3930   34.8250   46.5670 C   0  0  0  0  0  0  0  0  0  0  0  0
   44.8320   34.9420   45.2460 C   0  0  0  0  0  0  0  0  0  0  0  0
   45.7480   34.0520   44.6940 C   0  0  0  0  0  0  0  0  0  0  0  0
   46.1880   33.0640   45.5100 N   0  0  0  0  0  0  0  0  0  0  0  0
   45.7680   32.9500   46.7800 C   0  0  0  0  0  0  0  0  0  0  0  0
   44.8740   33.8270   47.3060 N   0  0  0  0  0  0  0  0  0  0  0  0
   44.0550   32.6770   42.6680 Cl  0  0  0  0  0  0  0  0  0  0  0  0
   45.5150   33.5620   42.3270 C   0  0  0  0  0  0  0  0  0  0  0  0
   46.2240   34.1560   43.3050 C   0  0  0  0  0  0  0  0  0  0  0  0
   47.3700   34.8360   42.9310 C   0  0  0  0  0  0  0  0  0  0  0  0
   47.7870   34.9190   41.6490 C   0  0  0  0  0  0  0  0  0  0  0  0
   47.0550   34.3080   40.6580 C   0  0  0  0  0  0  0  0  0  0  0  0
   45.9150   33.6280   41.0070 C   0  0  0  0  0  0  0  0  0  0  0  0
   49.0240   35.6510   41.2430 C   0  0  0  0  0  0  0  0  0  0  0  0
   50.0940   34.8660   41.5660 F   0  0  0  0  0  0  0  0  0  0  0  0
   49.0820   36.8970   41.8320 F   0  0  0  0  0  0  0  0  0  0  0  0
   48.9770   35.8230   39.8560 F   0  0  0  0  0  0  0  0  0  0  0  0
   46.2370   31.8920   47.6680 C   0  0  0  0  0  0  0  0  0  0  0  0
   45.7240   30.7000   48.1340 C   0  0  0  0  0  0  0  0  0  0  0  0
   46.6370   30.1190   48.9580 N   0  0  0  0  0  0  0  0  0  0  0  0
   47.7170   30.9490   49.0060 C   0  0  0  0  0  0  0  0  0  0  0  0
   47.4540   32.0200   48.2150 N   0  0  0  0  0  0  0  0  0  0  0  0
   43.6686   35.5389   46.9860 H   0  0  0  0  0  0  0  0  0  0  0  0
   44.4422   35.7614   44.6242 H   0  0  0  0  0  0  0  0  0  0  0  0
   47.9670   35.3302   43.7116 H   0  0  0  0  0  0  0  0  0  0  0  0
   47.3765   34.3631   39.6075 H   0  0  0  0  0  0  0  0  0  0  0  0
   45.3156   33.1319   40.2294 H   0  0  0  0  0  0  0  0  0  0  0  0
   44.7368   30.2862   47.8806 H   0  0  0  0  0  0  0  0  0  0  0  0
   46.5320   29.2215   49.4523 H   0  0  0  0  0  0  0  0  0  0  0  0
   48.6381   30.7807   49.5833 H   0  0  0  0  0  0  0  0  0  0  0  0
  1  6  2  0
  2  1  1  0
  3  2  2  0
  3  4  1  0
  4  5  2  0
  5  6  1  0
  5 18  1  0
  8  7  1  0
  8  9  2  0
  9  3  1  0
 10  9  1  0
 11 10  2  0
 12 13  2  0
 12 11  1  0
 13  8  1  0
 14 15  1  0
 14 11  1  0
 14 16  1  0
 17 14  1  0
 18 19  2  0
 18 22  1  0
 19 20  1  0
 20 21  1  0
 22 21  2  0
  1 23  1  0
  2 24  1  0
 10 25  1  0
 12 26  1  0
 13 27  1  0
 19 28  1  0
 20 29  1  0
 21 30  1  0
M  ISO  8  23  14  24  14  25  14  26  14  27  14  28  14  29   9  30  14
M  END
>  <minimizedAffinity>  (1) 
-6.15441895

>  <minimizedRMSD>  (1) 
0.848739564

$$$$
