
     RDKit          3D

 47 51  0  0  1  0  0  0  0  0999 V2000
   46.4220   32.0000   45.4230 C   0  0  0  0  0  0  0  0  0  0  0  0
   46.8200   32.8340   44.3450 C   0  0  0  0  0  0  0  0  0  0  0  0
   47.8740   32.2620   43.6520 C   0  0  0  0  0  0  0  0  0  0  0  0
   48.4830   31.0670   43.9190 C   0  0  0  0  0  0  0  0  0  0  0  0
   48.0330   30.3310   44.9730 C   0  0  0  0  0  0  0  0  0  0  0  0
   47.0000   30.7910   45.7340 C   0  0  0  0  0  0  0  0  0  0  0  0
   48.8230   29.1990   44.9910 O   0  0  0  0  0  0  0  0  0  0  0  0
   49.7840   29.2600   43.9770 C   0  0  1  0  0  0  0  0  0  0  0  0
   49.5320   30.4610   43.2640 O   0  0  0  0  0  0  0  0  0  0  0  0
   52.3000   29.6900   42.2200 Cl  0  0  0  0  0  0  0  0  0  0  0  0
   52.3340   29.3580   43.9370 C   0  0  0  0  0  0  0  0  0  0  0  0
   51.1240   29.1930   44.5640 C   0  0  0  0  0  0  0  0  0  0  0  0
   51.2430   28.9300   45.9290 C   0  0  0  0  0  0  0  0  0  0  0  0
   52.4230   28.8350   46.6370 C   0  0  0  0  0  0  0  0  0  0  0  0
   53.5970   29.0140   45.9350 C   0  0  0  0  0  0  0  0  0  0  0  0
   53.5460   29.2750   44.5870 C   0  0  0  0  0  0  0  0  0  0  0  0
   55.0340   29.4990   43.7110 Cl  0  0  0  0  0  0  0  0  0  0  0  0
   45.1020   36.0410   43.4700 C   0  0  0  0  0  0  0  0  0  0  0  0
   45.9300   34.9410   43.2370 C   0  0  0  0  0  0  0  0  0  0  0  0
   46.0570   34.0170   44.2330 C   0  0  0  0  0  0  0  0  0  0  0  0
   45.3760   34.2130   45.3770 N   0  0  0  0  0  0  0  0  0  0  0  0
   44.5820   35.2720   45.5950 C   0  0  0  0  0  0  0  0  0  0  0  0
   44.4510   36.1750   44.6460 N   0  0  0  0  0  0  0  0  0  0  0  0
   46.5380   34.8320   41.9810 N   0  0  0  0  0  0  0  0  0  0  0  0
   47.8210   35.2510   41.6930 C   0  0  0  0  0  0  0  0  0  0  0  0
   48.3150   34.8890   40.3090 C   0  0  0  0  0  0  0  0  0  0  0  0
   47.9640   33.6110   39.8500 N   0  0  0  0  0  0  0  0  0  0  0  0
   46.6490   33.1870   40.1250 C   0  0  0  0  0  0  0  0  0  0  0  0
   45.8560   34.2610   40.8330 C   0  0  0  0  0  0  0  0  0  0  0  0
   45.5911   32.3458   46.0555 H   0  0  0  0  0  0  0  0  0  0  0  0
   48.2632   32.8302   42.7943 H   0  0  0  0  0  0  0  0  0  0  0  0
   46.6326   30.2021   46.5873 H   0  0  0  0  0  0  0  0  0  0  0  0
   49.7277   28.4122   43.2784 H   0  0  0  0  0  0  0  0  0  0  0  0
   50.3096   28.7850   46.4927 H   0  0  0  0  0  0  0  0  0  0  0  0
   52.4277   28.6252   47.7168 H   0  0  0  0  0  0  0  0  0  0  0  0
   54.5665   28.9483   46.4505 H   0  0  0  0  0  0  0  0  0  0  0  0
   44.9787   36.8055   42.6887 H   0  0  0  0  0  0  0  0  0  0  0  0
   44.0492   35.3840   46.5508 H   0  0  0  0  0  0  0  0  0  0  0  0
   47.8528   36.3461   41.7914 H   0  0  0  0  0  0  0  0  0  0  0  0
   48.4816   34.7303   42.4019 H   0  0  0  0  0  0  0  0  0  0  0  0
   47.9064   35.6256   39.6015 H   0  0  0  0  0  0  0  0  0  0  0  0
   49.4131   34.8918   40.3738 H   0  0  0  0  0  0  0  0  0  0  0  0
   48.6086   32.9343   40.2830 H   0  0  0  0  0  0  0  0  0  0  0  0
   46.1481   32.9392   39.1775 H   0  0  0  0  0  0  0  0  0  0  0  0
   46.7012   32.3070   40.7830 H   0  0  0  0  0  0  0  0  0  0  0  0
   45.6485   35.0687   40.1157 H   0  0  0  0  0  0  0  0  0  0  0  0
   44.9379   33.7861   41.2092 H   0  0  0  0  0  0  0  0  0  0  0  0
  1  6  2  0
  2  1  1  0
  3  4  1  0
  3  2  2  0
  4  5  2  0
  5  7  1  0
  5  6  1  0
  8 12  1  0
  8  7  1  0
  9  4  1  0
  9  8  1  0
 10 11  1  0
 11 12  2  0
 11 16  1  0
 12 13  1  0
 13 14  2  0
 15 14  1  0
 16 15  2  0
 17 16  1  0
 18 23  2  0
 19 18  1  0
 19 20  2  0
 20  2  1  0
 20 21  1  0
 21 22  2  0
 23 22  1  0
 24 19  1  0
 25 24  1  0
 26 25  1  0
 27 28  1  0
 27 26  1  0
 28 29  1  0
 29 24  1  0
  1 30  1  0
  3 31  1  0
  6 32  1  0
  8 33  1  6
 13 34  1  0
 14 35  1  0
 15 36  1  0
 18 37  1  0
 22 38  1  0
 25 39  1  0
 25 40  1  0
 26 41  1  0
 26 42  1  0
 27 43  1  0
 28 44  1  0
 28 45  1  0
 29 46  1  0
 29 47  1  0
M  ISO  8  30  14  31  14  32  14  33  13  34  14  35  14  36  14  37  14
M  ISO  8  38  14  39  13  40  13  41  13  42  13  43   5  44  13  45  13
M  ISO  2  46  13  47  13
M  END
>  <minimizedAffinity>  (1) 
-5.49711323

>  <minimizedRMSD>  (1) 
0.804741204

$$$$
