
     RDKit          3D

 39 42  0  0  1  0  0  0  0  0999 V2000
   45.1200   36.0130   43.5070 C   0  0  0  0  0  0  0  0  0  0  0  0
   45.9180   34.8970   43.2610 C   0  0  0  0  0  0  0  0  0  0  0  0
   46.0400   33.9630   44.2550 C   0  0  0  0  0  0  0  0  0  0  0  0
   45.3780   34.1690   45.4370 N   0  0  0  0  0  0  0  0  0  0  0  0
   44.6160   35.2560   45.6470 C   0  0  0  0  0  0  0  0  0  0  0  0
   44.4920   36.1630   44.6910 N   0  0  0  0  0  0  0  0  0  0  0  0
   46.5570   34.8050   42.0270 N   0  0  0  0  0  0  0  0  0  0  0  0
   47.8710   35.2660   41.8090 C   0  0  0  0  0  0  0  0  0  0  0  0
   48.4430   34.9390   40.4520 C   0  0  0  0  0  0  0  0  0  0  0  0
   48.1450   33.6640   39.9570 N   0  0  0  0  0  0  0  0  0  0  0  0
   46.8420   33.2170   40.1650 C   0  0  0  0  0  0  0  0  0  0  0  0
   45.9730   34.2510   40.8510 C   0  0  0  0  0  0  0  0  0  0  0  0
   46.4740   32.0220   45.5150 C   0  0  0  0  0  0  0  0  0  0  0  0
   46.7490   32.7510   44.3350 C   0  0  0  0  0  0  0  0  0  0  0  0
   47.7030   32.0990   43.5740 C   0  0  0  0  0  0  0  0  0  0  0  0
   48.3180   30.9250   43.8840 C   0  0  0  0  0  0  0  0  0  0  0  0
   47.9930   30.2830   45.0610 C   0  0  0  0  0  0  0  0  0  0  0  0
   47.0590   30.8320   45.8920 C   0  0  0  0  0  0  0  0  0  0  0  0
   48.7840   29.1490   45.0760 O   0  0  0  0  0  0  0  0  0  0  0  0
   49.4950   29.0330   43.8690 C   0  0  1  0  0  0  0  0  0  0  0  0
   49.2740   30.2450   43.1440 O   0  0  0  0  0  0  0  0  0  0  0  0
   50.9210   28.7350   44.0490 C   0  0  0  0  0  0  0  0  0  0  0  0
   51.5770   29.7830   44.1190 O   0  0  0  0  0  0  0  0  0  0  0  0
   45.0012   36.7796   42.7271 H   0  0  0  0  0  0  0  0  0  0  0  0
   44.0982   35.3912   46.6081 H   0  0  0  0  0  0  0  0  0  0  0  0
   47.8730   36.3598   41.9259 H   0  0  0  0  0  0  0  0  0  0  0  0
   48.5050   34.7479   42.5435 H   0  0  0  0  0  0  0  0  0  0  0  0
   48.0559   35.6783   39.7354 H   0  0  0  0  0  0  0  0  0  0  0  0
   49.5359   34.9644   40.5742 H   0  0  0  0  0  0  0  0  0  0  0  0
   48.7838   32.9937   40.4080 H   0  0  0  0  0  0  0  0  0  0  0  0
   46.3943   32.9712   39.1908 H   0  0  0  0  0  0  0  0  0  0  0  0
   46.8932   32.3364   40.8222 H   0  0  0  0  0  0  0  0  0  0  0  0
   45.7811   35.0688   40.1409 H   0  0  0  0  0  0  0  0  0  0  0  0
   45.0509   33.7384   41.1624 H   0  0  0  0  0  0  0  0  0  0  0  0
   45.7216   32.4447   46.1971 H   0  0  0  0  0  0  0  0  0  0  0  0
   47.9927   32.5759   42.6260 H   0  0  0  0  0  0  0  0  0  0  0  0
   46.7813   30.3389   46.8353 H   0  0  0  0  0  0  0  0  0  0  0  0
   49.1240   28.1655   43.3035 H   0  0  0  0  0  0  0  0  0  0  0  0
   51.3471   27.7229   44.1128 H   0  0  0  0  0  0  0  0  0  0  0  0
  1  6  2  0
  2  1  1  0
  2  3  2  0
  3 14  1  0
  3  4  1  0
  4  5  2  0
  6  5  1  0
  7  2  1  0
  8  7  1  0
  9  8  1  0
 10 11  1  0
 10  9  1  0
 11 12  1  0
 12  7  1  0
 13 18  2  0
 14 13  1  0
 15 16  1  0
 15 14  2  0
 16 17  2  0
 17 19  1  0
 17 18  1  0
 20 22  1  0
 20 19  1  0
 21 20  1  0
 21 16  1  0
 22 23  2  0
  1 24  1  0
  5 25  1  0
  8 26  1  0
  8 27  1  0
  9 28  1  0
  9 29  1  0
 10 30  1  0
 11 31  1  0
 11 32  1  0
 12 33  1  0
 12 34  1  0
 13 35  1  0
 15 36  1  0
 18 37  1  0
 20 38  1  6
 22 39  1  0
M  ISO  8  24  14  25  14  26  13  27  13  28  13  29  13  30   5  31  13
M  ISO  8  32  13  33  13  34  13  35  14  36  14  37  14  38  13  39   6
M  END
>  <minimizedAffinity>  (1) 
-4.98407173

>  <minimizedRMSD>  (1) 
0.0391796418

$$$$
