
     RDKit          3D

 50 55  0  0  1  0  0  0  0  0999 V2000
   46.5830   32.2060   45.7120 C   0  0  0  0  0  0  0  0  0  0  0  0
   46.6890   32.7890   44.4280 C   0  0  0  0  0  0  0  0  0  0  0  0
   47.5080   32.0240   43.6180 C   0  0  0  0  0  0  0  0  0  0  0  0
   48.1440   30.8740   43.9620 C   0  0  0  0  0  0  0  0  0  0  0  0
   47.9910   30.3790   45.2390 C   0  0  0  0  0  0  0  0  0  0  0  0
   47.2020   31.0440   46.1310 C   0  0  0  0  0  0  0  0  0  0  0  0
   48.7590   29.2360   45.2700 O   0  0  0  0  0  0  0  0  0  0  0  0
   49.3100   28.9750   44.0030 C   0  0  2  0  0  0  0  0  0  0  0  0
   48.9650   30.0830   43.1710 O   0  0  0  0  0  0  0  0  0  0  0  0
   48.5410   27.3870   42.1750 C   0  0  0  0  0  0  0  0  0  0  0  0
   48.7460   27.6950   43.5130 C   0  0  0  0  0  0  0  0  0  0  0  0
   48.4130   26.7690   44.4990 C   0  0  0  0  0  0  0  0  0  0  0  0
   47.8790   25.5510   44.0940 C   0  0  0  0  0  0  0  0  0  0  0  0
   47.6730   25.2360   42.7700 C   0  0  0  0  0  0  0  0  0  0  0  0
   48.0090   26.1670   41.8090 C   0  0  0  0  0  0  0  0  0  0  0  0
   47.1340   23.9490   42.7900 O   0  0  0  0  0  0  0  0  0  0  0  0
   47.5060   23.3490   44.0260 C   0  0  0  0  0  0  0  0  0  0  0  0
   47.4750   24.4800   44.8970 O   0  0  0  0  0  0  0  0  0  0  0  0
   45.0970   36.0430   43.5030 C   0  0  0  0  0  0  0  0  0  0  0  0
   45.8870   34.9170   43.2960 C   0  0  0  0  0  0  0  0  0  0  0  0
   45.9960   34.0090   44.3120 C   0  0  0  0  0  0  0  0  0  0  0  0
   45.3300   34.2480   45.4830 N   0  0  0  0  0  0  0  0  0  0  0  0
   44.5710   35.3440   45.6600 C   0  0  0  0  0  0  0  0  0  0  0  0
   44.4590   36.2230   44.6840 N   0  0  0  0  0  0  0  0  0  0  0  0
   46.5480   34.7950   42.0720 N   0  0  0  0  0  0  0  0  0  0  0  0
   47.8760   35.2400   41.8730 C   0  0  0  0  0  0  0  0  0  0  0  0
   48.4790   34.8860   40.5440 C   0  0  0  0  0  0  0  0  0  0  0  0
   48.1600   33.6080   40.0490 N   0  0  0  0  0  0  0  0  0  0  0  0
   46.8410   33.1710   40.2490 C   0  0  0  0  0  0  0  0  0  0  0  0
   45.9750   34.2320   40.8990 C   0  0  0  0  0  0  0  0  0  0  0  0
   45.9489   32.7259   46.4452 H   0  0  0  0  0  0  0  0  0  0  0  0
   47.6601   32.3835   42.5896 H   0  0  0  0  0  0  0  0  0  0  0  0
   47.0625   30.6660   47.1546 H   0  0  0  0  0  0  0  0  0  0  0  0
   50.4048   28.8693   44.0162 H   0  0  0  0  0  0  0  0  0  0  0  0
   48.8048   28.1215   41.3998 H   0  0  0  0  0  0  0  0  0  0  0  0
   48.5677   26.9944   45.5645 H   0  0  0  0  0  0  0  0  0  0  0  0
   47.8521   25.9358   40.7451 H   0  0  0  0  0  0  0  0  0  0  0  0
   46.7828   22.5803   44.3359 H   0  0  0  0  0  0  0  0  0  0  0  0
   48.4707   22.8210   44.0020 H   0  0  0  0  0  0  0  0  0  0  0  0
   44.9899   36.7909   42.7035 H   0  0  0  0  0  0  0  0  0  0  0  0
   44.0468   35.5060   46.6134 H   0  0  0  0  0  0  0  0  0  0  0  0
   47.8853   36.3357   41.9694 H   0  0  0  0  0  0  0  0  0  0  0  0
   48.4859   34.7258   42.6304 H   0  0  0  0  0  0  0  0  0  0  0  0
   48.1354   35.6284   39.8087 H   0  0  0  0  0  0  0  0  0  0  0  0
   49.5678   34.8831   40.7006 H   0  0  0  0  0  0  0  0  0  0  0  0
   48.7870   32.9301   40.5052 H   0  0  0  0  0  0  0  0  0  0  0  0
   46.4045   32.9065   39.2746 H   0  0  0  0  0  0  0  0  0  0  0  0
   46.8731   32.3031   40.9241 H   0  0  0  0  0  0  0  0  0  0  0  0
   45.8094   35.0397   40.1708 H   0  0  0  0  0  0  0  0  0  0  0  0
   45.0376   33.7422   41.2013 H   0  0  0  0  0  0  0  0  0  0  0  0
  1  6  2  0
  2  1  1  0
  3  4  1  0
  3  2  2  0
  4  5  2  0
  5  7  1  0
  5  6  1  0
  8  7  1  0
  9  4  1  0
  9  8  1  0
 10 11  2  0
 11  8  1  0
 11 12  1  0
 13 12  2  0
 13 18  1  0
 14 16  1  0
 14 13  1  0
 15 10  1  0
 15 14  2  0
 16 17  1  0
 17 18  1  0
 19 24  2  0
 20 19  1  0
 20 21  2  0
 21  2  1  0
 21 22  1  0
 22 23  2  0
 24 23  1  0
 25 20  1  0
 26 25  1  0
 27 26  1  0
 28 29  1  0
 28 27  1  0
 29 30  1  0
 30 25  1  0
  1 31  1  0
  3 32  1  0
  6 33  1  0
  8 34  1  1
 10 35  1  0
 12 36  1  0
 15 37  1  0
 17 38  1  0
 17 39  1  0
 19 40  1  0
 23 41  1  0
 26 42  1  0
 26 43  1  0
 27 44  1  0
 27 45  1  0
 28 46  1  0
 29 47  1  0
 29 48  1  0
 30 49  1  0
 30 50  1  0
M  ISO  8  31  14  32  14  33  14  34  13  35  14  36  14  37  14  38  13
M  ISO  8  39  13  40  14  41  14  42  13  43  13  44  13  45  13  46   5
M  ISO  4  47  13  48  13  49  13  50  13
M  END
>  <minimizedAffinity>  (1) 
-4.92586136

>  <minimizedRMSD>  (1) 
1.01145697

$$$$
