
     RDKit          3D

 43 46  0  0  1  0  0  0  0  0999 V2000
   45.2390   35.9910   43.4300 C   0  0  0  0  0  0  0  0  0  0  0  0
   46.0550   34.8980   43.1720 C   0  0  0  0  0  0  0  0  0  0  0  0
   46.1490   33.9280   44.1370 C   0  0  0  0  0  0  0  0  0  0  0  0
   45.4410   34.0860   45.2990 N   0  0  0  0  0  0  0  0  0  0  0  0
   44.6590   35.1560   45.5180 C   0  0  0  0  0  0  0  0  0  0  0  0
   44.5630   36.0920   44.5940 N   0  0  0  0  0  0  0  0  0  0  0  0
   46.7410   34.8540   41.9600 N   0  0  0  0  0  0  0  0  0  0  0  0
   48.0210   35.4250   41.7750 C   0  0  0  0  0  0  0  0  0  0  0  0
   48.6560   35.1300   40.4350 C   0  0  0  0  0  0  0  0  0  0  0  0
   48.4630   33.8320   39.9350 N   0  0  0  0  0  0  0  0  0  0  0  0
   47.1940   33.2670   40.1240 C   0  0  0  0  0  0  0  0  0  0  0  0
   46.2320   34.2380   40.7760 C   0  0  0  0  0  0  0  0  0  0  0  0
   46.4490   31.8830   45.2630 C   0  0  0  0  0  0  0  0  0  0  0  0
   46.8640   32.7180   44.1980 C   0  0  0  0  0  0  0  0  0  0  0  0
   47.9260   32.1440   43.5230 C   0  0  0  0  0  0  0  0  0  0  0  0
   48.5250   30.9590   43.8000 C   0  0  0  0  0  0  0  0  0  0  0  0
   48.0620   30.2120   44.8600 C   0  0  0  0  0  0  0  0  0  0  0  0
   47.0150   30.6680   45.6020 C   0  0  0  0  0  0  0  0  0  0  0  0
   48.8700   29.1040   44.8860 O   0  0  0  0  0  0  0  0  0  0  0  0
   49.7520   29.0980   43.7950 C   0  0  2  0  0  0  0  0  0  0  0  0
   49.5810   30.3530   43.1390 O   0  0  0  0  0  0  0  0  0  0  0  0
   49.3400   28.0210   42.9970 O   0  0  0  0  0  0  0  0  0  0  0  0
   51.7190   28.1620   41.8350 O   0  0  0  0  0  0  0  0  0  0  0  0
   50.2390   28.0400   41.5570 P   0  0  0  0  0  0  0  0  0  0  0  0
   50.0380   26.5520   40.7630 O   0  0  0  0  0  0  0  0  0  0  0  0
   49.7330   29.3290   40.5870 O   0  0  0  0  0  0  0  0  0  0  0  0
   45.1420   36.7856   42.6756 H   0  0  0  0  0  0  0  0  0  0  0  0
   44.1023   35.2509   46.4620 H   0  0  0  0  0  0  0  0  0  0  0  0
   47.9275   36.5162   41.8772 H   0  0  0  0  0  0  0  0  0  0  0  0
   48.6756   34.9739   42.5353 H   0  0  0  0  0  0  0  0  0  0  0  0
   48.2409   35.8380   39.7026 H   0  0  0  0  0  0  0  0  0  0  0  0
   49.7402   35.2292   40.5922 H   0  0  0  0  0  0  0  0  0  0  0  0
   49.1502   33.2160   40.3923 H   0  0  0  0  0  0  0  0  0  0  0  0
   46.7889   32.9686   39.1458 H   0  0  0  0  0  0  0  0  0  0  0  0
   47.3044   32.3990   40.7906 H   0  0  0  0  0  0  0  0  0  0  0  0
   45.9938   35.0290   40.0497 H   0  0  0  0  0  0  0  0  0  0  0  0
   45.3473   33.6567   41.0750 H   0  0  0  0  0  0  0  0  0  0  0  0
   45.6029   32.2309   45.8738 H   0  0  0  0  0  0  0  0  0  0  0  0
   48.3282   32.7095   42.6695 H   0  0  0  0  0  0  0  0  0  0  0  0
   46.6290   30.0838   46.4504 H   0  0  0  0  0  0  0  0  0  0  0  0
   50.8151   28.9796   44.0513 H   0  0  0  0  0  0  0  0  0  0  0  0
   49.9405   25.8305   41.4339 H   0  0  0  0  0  0  0  0  0  0  0  0
   49.4386   30.0791   41.1622 H   0  0  0  0  0  0  0  0  0  0  0  0
  1  6  2  0
  2  1  1  0
  2  3  2  0
  3 14  1  0
  3  4  1  0
  4  5  2  0
  6  5  1  0
  7  2  1  0
  8  7  1  0
  9  8  1  0
 10 11  1  0
 10  9  1  0
 11 12  1  0
 12  7  1  0
 13 18  2  0
 14 13  1  0
 15 16  1  0
 15 14  2  0
 16 17  2  0
 17 19  1  0
 17 18  1  0
 20 19  1  0
 21 20  1  0
 21 16  1  0
 22 20  1  0
 24 23  2  0
 24 22  1  0
 25 24  1  0
 26 24  1  0
  1 27  1  0
  5 28  1  0
  8 29  1  0
  8 30  1  0
  9 31  1  0
  9 32  1  0
 10 33  1  0
 11 34  1  0
 11 35  1  0
 12 36  1  0
 12 37  1  0
 13 38  1  0
 15 39  1  0
 18 40  1  0
 20 41  1  1
 25 42  1  0
 26 43  1  0
M  ISO  8  27  14  28  14  29  13  30  13  31  13  32  13  33   5  34  13
M  ISO  8  35  13  36  13  37  13  38  14  39  14  40  14  41  13  42   3
M  ISO  1  43   3
M  END
>  <minimizedAffinity>  (1) 
-4.72347927

>  <minimizedRMSD>  (1) 
1.23710859

$$$$
