
     RDKit          3D

 34 36  0  0  0  0  0  0  0  0999 V2000
   44.8490   33.0210   41.1650 Cl  0  0  0  0  0  0  0  0  0  0  0  0
   46.3440   33.8840   40.9240 C   0  0  0  0  0  0  0  0  0  0  0  0
   46.8340   34.6860   41.9070 C   0  0  0  0  0  0  0  0  0  0  0  0
   48.0310   35.3940   41.7500 C   0  0  0  0  0  0  0  0  0  0  0  0
   48.6810   35.2340   40.5520 C   0  0  0  0  0  0  0  0  0  0  0  0
   48.1760   34.4170   39.5620 C   0  0  0  0  0  0  0  0  0  0  0  0
   47.0140   33.7410   39.7380 C   0  0  0  0  0  0  0  0  0  0  0  0
   45.5960   34.0660   45.3270 C   0  0  0  0  0  0  0  0  0  0  0  0
   44.7070   35.1260   45.5290 C   0  0  0  0  0  0  0  0  0  0  0  0
   44.5420   36.0360   44.4990 C   0  0  0  0  0  0  0  0  0  0  0  0
   45.2410   35.8630   43.3510 N   0  0  0  0  0  0  0  0  0  0  0  0
   46.1010   34.8260   43.1730 C   0  0  0  0  0  0  0  0  0  0  0  0
   46.2730   33.9310   44.1690 N   0  0  0  0  0  0  0  0  0  0  0  0
   46.5680   32.9220   38.6620 N   0  0  0  0  0  0  0  0  0  0  0  0
   45.5700   33.2730   37.6690 C   0  0  0  0  0  0  0  0  0  0  0  0
   44.8140   32.0740   37.1750 C   0  0  0  0  0  0  0  0  0  0  0  0
   45.6850   31.1440   36.4800 N   0  0  0  0  0  0  0  0  0  0  0  0
   47.0420   31.3630   36.9210 C   0  0  0  0  0  0  0  0  0  0  0  0
   47.0740   31.5850   38.4150 C   0  0  0  0  0  0  0  0  0  0  0  0
   48.4291   36.0433   42.5436 H   0  0  0  0  0  0  0  0  0  0  0  0
   49.6260   35.7693   40.3773 H   0  0  0  0  0  0  0  0  0  0  0  0
   48.7249   34.3122   38.6145 H   0  0  0  0  0  0  0  0  0  0  0  0
   45.7460   33.3278   46.1286 H   0  0  0  0  0  0  0  0  0  0  0  0
   44.1567   35.2333   46.4754 H   0  0  0  0  0  0  0  0  0  0  0  0
   43.8538   36.8868   44.6107 H   0  0  0  0  0  0  0  0  0  0  0  0
   44.8574   33.9806   38.1180 H   0  0  0  0  0  0  0  0  0  0  0  0
   46.0917   33.7202   36.8100 H   0  0  0  0  0  0  0  0  0  0  0  0
   44.3566   31.5612   38.0340 H   0  0  0  0  0  0  0  0  0  0  0  0
   44.0443   32.4188   36.4688 H   0  0  0  0  0  0  0  0  0  0  0  0
   45.6209   31.3021   35.4642 H   0  0  0  0  0  0  0  0  0  0  0  0
   47.6522   30.4825   36.6711 H   0  0  0  0  0  0  0  0  0  0  0  0
   47.4448   32.2536   36.4164 H   0  0  0  0  0  0  0  0  0  0  0  0
   46.4385   30.8425   38.9198 H   0  0  0  0  0  0  0  0  0  0  0  0
   48.0975   31.4774   38.8035 H   0  0  0  0  0  0  0  0  0  0  0  0
  2  1  1  0
  2  3  2  0
  3 12  1  0
  4  3  1  0
  5  4  2  0
  6  7  2  0
  6  5  1  0
  7  2  1  0
  8  9  2  0
 10  9  1  0
 11 10  2  0
 12 11  1  0
 12 13  2  0
 13  8  1  0
 14  7  1  0
 15 14  1  0
 16 15  1  0
 17 18  1  0
 17 16  1  0
 18 19  1  0
 19 14  1  0
  4 20  1  0
  5 21  1  0
  6 22  1  0
  8 23  1  0
  9 24  1  0
 10 25  1  0
 15 26  1  0
 15 27  1  0
 16 28  1  0
 16 29  1  0
 17 30  1  0
 18 31  1  0
 18 32  1  0
 19 33  1  0
 19 34  1  0
M  ISO  8  20  14  21  14  22  14  23  14  24  14  25  14  26  13  27  13
M  ISO  7  28  13  29  13  30   5  31  13  32  13  33  13  34  13
M  END
>  <minimizedAffinity>  (1) 
-5.36273432

>  <minimizedRMSD>  (1) 
0.171788067

$$$$
