
     RDKit          3D

 52 57  0  0  1  0  0  0  0  0999 V2000
   45.6030   32.6270   46.5790 C   0  0  0  0  0  0  0  0  0  0  0  0
   46.3030   32.7590   45.3580 C   0  0  0  0  0  0  0  0  0  0  0  0
   47.1880   31.7230   45.1840 C   0  0  0  0  0  0  0  0  0  0  0  0
   47.3990   30.6910   46.0410 C   0  0  0  0  0  0  0  0  0  0  0  0
   46.6700   30.6390   47.2240 C   0  0  0  0  0  0  0  0  0  0  0  0
   45.7580   31.6230   47.4920 C   0  0  0  0  0  0  0  0  0  0  0  0
   47.1150   29.4910   47.8630 O   0  0  0  0  0  0  0  0  0  0  0  0
   48.0650   28.8210   47.0650 C   0  0  2  0  0  0  0  0  0  0  0  0
   48.2730   29.6260   45.9080 O   0  0  0  0  0  0  0  0  0  0  0  0
   45.8610   35.6610   43.0340 C   0  0  0  0  0  0  0  0  0  0  0  0
   46.4000   34.4510   43.4680 C   0  0  0  0  0  0  0  0  0  0  0  0
   45.9790   33.9180   44.6490 C   0  0  0  0  0  0  0  0  0  0  0  0
   45.0360   34.6220   45.3490 N   0  0  0  0  0  0  0  0  0  0  0  0
   44.5190   35.7810   44.9350 C   0  0  0  0  0  0  0  0  0  0  0  0
   44.9290   36.2890   43.7930 N   0  0  0  0  0  0  0  0  0  0  0  0
   47.3670   33.8570   42.6620 N   0  0  0  0  0  0  0  0  0  0  0  0
   48.7590   34.1290   42.8340 C   0  0  0  0  0  0  0  0  0  0  0  0
   49.6740   33.2780   41.9980 C   0  0  0  0  0  0  0  0  0  0  0  0
   49.3060   31.9400   41.8870 N   0  0  0  0  0  0  0  0  0  0  0  0
   47.9670   31.6870   41.6770 C   0  0  0  0  0  0  0  0  0  0  0  0
   47.1390   32.9510   41.6080 C   0  0  0  0  0  0  0  0  0  0  0  0
   47.4650   27.6070   46.6560 O   0  0  0  0  0  0  0  0  0  0  0  0
   46.8280   26.7060   47.4630 C   0  0  0  0  0  0  0  0  0  0  0  0
   47.3730   25.9290   48.4410 N   0  0  0  0  0  0  0  0  0  0  0  0
   46.6120   25.0790   49.1600 C   0  0  0  0  0  0  0  0  0  0  0  0
   45.2860   24.9290   48.9800 N   0  0  0  0  0  0  0  0  0  0  0  0
   44.7030   25.6810   48.0190 C   0  0  0  0  0  0  0  0  0  0  0  0
   43.3410   25.5470   47.8110 C   0  0  0  0  0  0  0  0  0  0  0  0
   42.6910   26.2920   46.8400 C   0  0  0  0  0  0  0  0  0  0  0  0
   43.4310   27.1900   46.0630 C   0  0  0  0  0  0  0  0  0  0  0  0
   44.7820   27.2950   46.2990 C   0  0  0  0  0  0  0  0  0  0  0  0
   45.4690   26.5630   47.2640 C   0  0  0  0  0  0  0  0  0  0  0  0
   44.8638   33.4063   46.8162 H   0  0  0  0  0  0  0  0  0  0  0  0
   47.7843   31.7300   44.2597 H   0  0  0  0  0  0  0  0  0  0  0  0
   45.1652   31.6060   48.4184 H   0  0  0  0  0  0  0  0  0  0  0  0
   49.0108   28.6402   47.5968 H   0  0  0  0  0  0  0  0  0  0  0  0
   46.1895   36.1036   42.0821 H   0  0  0  0  0  0  0  0  0  0  0  0
   43.7623   36.3029   45.5391 H   0  0  0  0  0  0  0  0  0  0  0  0
   48.9370   35.1825   42.5724 H   0  0  0  0  0  0  0  0  0  0  0  0
   48.9931   33.8979   43.8837 H   0  0  0  0  0  0  0  0  0  0  0  0
   49.7060   33.7067   40.9855 H   0  0  0  0  0  0  0  0  0  0  0  0
   50.6474   33.2841   42.5103 H   0  0  0  0  0  0  0  0  0  0  0  0
   49.8288   31.5359   41.0969 H   0  0  0  0  0  0  0  0  0  0  0  0
   47.8563   31.1413   40.7283 H   0  0  0  0  0  0  0  0  0  0  0  0
   47.6022   31.0964   42.5303 H   0  0  0  0  0  0  0  0  0  0  0  0
   47.3688   33.4610   40.6608 H   0  0  0  0  0  0  0  0  0  0  0  0
   46.0866   32.6401   41.6849 H   0  0  0  0  0  0  0  0  0  0  0  0
   47.1020   24.4742   49.9372 H   0  0  0  0  0  0  0  0  0  0  0  0
   42.7661   24.8386   48.4256 H   0  0  0  0  0  0  0  0  0  0  0  0
   41.6083   26.1790   46.6823 H   0  0  0  0  0  0  0  0  0  0  0  0
   42.9452   27.7960   45.2840 H   0  0  0  0  0  0  0  0  0  0  0  0
   45.3574   28.0036   45.6852 H   0  0  0  0  0  0  0  0  0  0  0  0
  1  6  2  0
  2  1  1  0
  3  2  2  0
  3  4  1  0
  4  5  2  0
  5  6  1  0
  5  7  1  0
  8  7  1  0
  9  4  1  0
  9  8  1  0
 10 11  2  0
 10 15  1  0
 11 12  1  0
 12 13  2  0
 12  2  1  0
 14 13  1  0
 15 14  2  0
 16 17  1  0
 16 11  1  0
 18 17  1  0
 19 18  1  0
 20 19  1  0
 21 20  1  0
 21 16  1  0
 22  8  1  0
 22 23  1  0
 23 24  2  0
 24 25  1  0
 26 25  2  0
 27 26  1  0
 28 27  2  0
 29 28  1  0
 30 31  1  0
 30 29  2  0
 31 32  2  0
 32 23  1  0
 32 27  1  0
  1 33  1  0
  3 34  1  0
  6 35  1  0
  8 36  1  1
 10 37  1  0
 14 38  1  0
 17 39  1  0
 17 40  1  0
 18 41  1  0
 18 42  1  0
 19 43  1  0
 20 44  1  0
 20 45  1  0
 21 46  1  0
 21 47  1  0
 25 48  1  0
 28 49  1  0
 29 50  1  0
 30 51  1  0
 31 52  1  0
M  ISO  8  33  14  34  14  35  14  36  13  37  14  38  14  39  13  40  13
M  ISO  8  41  13  42  13  43   5  44  13  45  13  46  13  47  13  48  14
M  ISO  4  49  14  50  14  51  14  52  14
M  END
>  <minimizedAffinity>  (1) 
-6.43562889

>  <minimizedRMSD>  (1) 
4.58065844

$$$$
