
     RDKit          3D

 23 24  0  0  0  0  0  0  0  0999 V2000
   46.5040   34.0350   43.4760 C   0  0  0  0  0  0  0  0  0  0  0  0
   47.6980   33.5140   42.9080 C   0  0  0  0  0  0  0  0  0  0  0  0
   48.1410   32.2780   43.3590 C   0  0  0  0  0  0  0  0  0  0  0  0
   47.4080   31.6320   44.3220 N   0  0  0  0  0  0  0  0  0  0  0  0
   46.2710   32.1610   44.8410 C   0  0  0  0  0  0  0  0  0  0  0  0
   45.8200   33.3750   44.4090 N   0  0  0  0  0  0  0  0  0  0  0  0
   48.5480   34.2200   41.9130 C   0  0  0  0  0  0  0  0  0  0  0  0
   48.5860   35.6440   41.8480 C   0  0  0  0  0  0  0  0  0  0  0  0
   49.7970   34.9650   42.4370 C   0  0  0  0  0  0  0  0  0  0  0  0
   46.0320   35.2590   43.0540 O   0  0  0  0  0  0  0  0  0  0  0  0
   44.6960   35.6770   45.3190 O   0  0  0  0  0  0  0  0  0  0  0  0
   44.7480   36.0490   43.8520 P   0  0  0  0  0  0  0  0  0  0  0  0
   44.9310   37.7300   43.7150 O   0  0  0  0  0  0  0  0  0  0  0  0
   43.2670   35.5960   43.1550 O   0  0  0  0  0  0  0  0  0  0  0  0
   49.0587   31.8270   42.9535 H   0  0  0  0  0  0  0  0  0  0  0  0
   45.7115   31.6103   45.6115 H   0  0  0  0  0  0  0  0  0  0  0  0
   48.3438   33.4391   41.1656 H   0  0  0  0  0  0  0  0  0  0  0  0
   48.6668   36.1379   40.8684 H   0  0  0  0  0  0  0  0  0  0  0  0
   47.9128   36.4360   42.2079 H   0  0  0  0  0  0  0  0  0  0  0  0
   50.0047   35.0236   43.5156 H   0  0  0  0  0  0  0  0  0  0  0  0
   50.8801   34.9486   42.2458 H   0  0  0  0  0  0  0  0  0  0  0  0
   44.9748   38.1319   44.6187 H   0  0  0  0  0  0  0  0  0  0  0  0
   42.6129   35.3959   43.8707 H   0  0  0  0  0  0  0  0  0  0  0  0
  1  6  2  0
  2  3  2  0
  2  1  1  0
  3  4  1  0
  4  5  2  0
  6  5  1  0
  7  9  1  0
  7  2  1  0
  8  7  1  0
  8  9  1  0
 10  1  1  0
 10 12  1  0
 12 11  2  0
 13 12  1  0
 14 12  1  0
  3 15  1  0
  5 16  1  0
  7 17  1  0
  8 18  1  0
  8 19  1  0
  9 20  1  0
  9 21  1  0
 13 22  1  0
 14 23  1  0
M  ISO  8  15  14  16  14  17  13  18  13  19  13  20  13  21  13  22   3
M  ISO  1  23   3
M  END
>  <minimizedAffinity>  (1) 
-4.83807325

>  <minimizedRMSD>  (1) 
2.231498

$$$$
