
     RDKit          3D

 29 31  0  0  1  0  0  0  0  0999 V2000
   45.4970   33.9720   42.4690 C   0  0  0  0  0  0  0  0  0  0  0  0
   46.8560   34.3380   42.6470 C   0  0  0  0  0  0  0  0  0  0  0  0
   47.5490   33.8010   43.7280 C   0  0  0  0  0  0  0  0  0  0  0  0
   46.8980   32.9350   44.5950 N   0  0  0  0  0  0  0  0  0  0  0  0
   45.6160   32.6160   44.3990 C   0  0  0  0  0  0  0  0  0  0  0  0
   44.9260   33.1320   43.3460 N   0  0  0  0  0  0  0  0  0  0  0  0
   47.4990   35.3680   41.7910 C   0  0  0  0  0  0  0  0  0  0  0  0
   48.9180   35.4970   41.6890 C   0  0  0  0  0  0  0  0  0  0  0  0
   48.2780   34.8550   40.5290 C   0  0  0  0  0  0  0  0  0  0  0  0
   43.8250   35.5960   41.6980 C   0  0  1  0  0  0  0  0  0  0  0  0
   44.5710   34.2830   41.3170 C   0  0  2  0  0  0  0  0  0  0  0  0
   43.3780   33.3630   41.2760 C   0  0  0  0  0  0  0  0  0  0  0  0
   42.2080   34.1140   41.4650 O   0  0  0  0  0  0  0  0  0  0  0  0
   42.5310   35.3830   40.9640 C   0  0  0  0  0  0  0  0  0  0  0  0
   43.5510   35.5330   43.0630 O   0  0  0  0  0  0  0  0  0  0  0  0
   48.6049   34.0612   43.8938 H   0  0  0  0  0  0  0  0  0  0  0  0
   45.1130   31.9293   45.0958 H   0  0  0  0  0  0  0  0  0  0  0  0
   46.6912   36.0787   42.0198 H   0  0  0  0  0  0  0  0  0  0  0  0
   49.3562   36.4990   41.5706 H   0  0  0  0  0  0  0  0  0  0  0  0
   49.7425   35.1891   42.3489 H   0  0  0  0  0  0  0  0  0  0  0  0
   48.1992   35.3840   39.5678 H   0  0  0  0  0  0  0  0  0  0  0  0
   48.3797   33.9065   39.9813 H   0  0  0  0  0  0  0  0  0  0  0  0
   44.3524   36.5348   41.4734 H   0  0  0  0  0  0  0  0  0  0  0  0
   45.1836   34.2581   40.4037 H   0  0  0  0  0  0  0  0  0  0  0  0
   43.3368   32.8576   40.2998 H   0  0  0  0  0  0  0  0  0  0  0  0
   43.4655   32.6095   42.0726 H   0  0  0  0  0  0  0  0  0  0  0  0
   42.6712   35.3735   39.8730 H   0  0  0  0  0  0  0  0  0  0  0  0
   41.7673   36.1608   41.1112 H   0  0  0  0  0  0  0  0  0  0  0  0
   44.3771   35.7229   43.5745 H   0  0  0  0  0  0  0  0  0  0  0  0
  1  2  1  0
  1  6  2  0
  2  3  2  0
  3  4  1  0
  5  4  2  0
  6  5  1  0
  7  2  1  0
  8  7  1  0
  9  8  1  0
  9  7  1  0
 10 15  1  0
 11 10  1  0
 11  1  1  0
 12 11  1  0
 12 13  1  0
 14 13  1  0
 14 10  1  0
  3 16  1  0
  5 17  1  0
  7 18  1  0
  8 19  1  0
  8 20  1  0
  9 21  1  0
  9 22  1  0
 10 23  1  1
 11 24  1  6
 12 25  1  0
 12 26  1  0
 14 27  1  0
 14 28  1  0
 15 29  1  0
M  ISO  8  16  14  17  14  18  13  19  13  20  13  21  13  22  13  23  13
M  ISO  6  24  13  25  13  26  13  27  13  28  13  29   3
M  END
>  <minimizedAffinity>  (1) 
-4.79319715

>  <minimizedRMSD>  (1) 
2.10409641

$$$$
