
     RDKit          3D

 31 33  0  0  0  0  0  0  0  0999 V2000
   46.1670   34.4020   43.5970 C   0  0  0  0  0  0  0  0  0  0  0  0
   45.6550   34.0600   44.8550 C   0  0  0  0  0  0  0  0  0  0  0  0
   44.7840   34.9360   45.5030 C   0  0  0  0  0  0  0  0  0  0  0  0
   44.4680   36.1140   44.8620 N   0  0  0  0  0  0  0  0  0  0  0  0
   44.9800   36.4010   43.6660 C   0  0  0  0  0  0  0  0  0  0  0  0
   45.8340   35.5550   43.0120 N   0  0  0  0  0  0  0  0  0  0  0  0
   47.0230   33.8160   42.6310 N   0  0  0  0  0  0  0  0  0  0  0  0
   47.0000   33.2990   41.3020 C   0  0  0  0  0  0  0  0  0  0  0  0
   48.1200   33.8670   40.4870 C   0  0  0  0  0  0  0  0  0  0  0  0
   49.4430   33.6090   41.0600 N   0  0  0  0  0  0  0  0  0  0  0  0
   49.4440   34.2940   42.3470 C   0  0  0  0  0  0  0  0  0  0  0  0
   48.3850   33.6620   43.1810 C   0  0  0  0  0  0  0  0  0  0  0  0
   46.0850   32.8110   45.5540 C   0  0  0  0  0  0  0  0  0  0  0  0
   47.0110   32.8170   46.6350 C   0  0  0  0  0  0  0  0  0  0  0  0
   45.5710   32.5920   47.0020 C   0  0  0  0  0  0  0  0  0  0  0  0
   44.3643   34.6948   46.4908 H   0  0  0  0  0  0  0  0  0  0  0  0
   44.7063   37.3526   43.1868 H   0  0  0  0  0  0  0  0  0  0  0  0
   47.1016   32.2044   41.3398 H   0  0  0  0  0  0  0  0  0  0  0  0
   46.0461   33.5810   40.8323 H   0  0  0  0  0  0  0  0  0  0  0  0
   47.9790   34.9552   40.4105 H   0  0  0  0  0  0  0  0  0  0  0  0
   48.0894   33.3746   39.5038 H   0  0  0  0  0  0  0  0  0  0  0  0
   49.5894   32.5977   41.1893 H   0  0  0  0  0  0  0  0  0  0  0  0
   50.4243   34.1817   42.8333 H   0  0  0  0  0  0  0  0  0  0  0  0
   49.2507   35.3692   42.2180 H   0  0  0  0  0  0  0  0  0  0  0  0
   48.4098   34.1216   44.1801 H   0  0  0  0  0  0  0  0  0  0  0  0
   48.5996   32.5835   43.2087 H   0  0  0  0  0  0  0  0  0  0  0  0
   46.0603   32.2660   44.5988 H   0  0  0  0  0  0  0  0  0  0  0  0
   47.7280   31.9887   46.7346 H   0  0  0  0  0  0  0  0  0  0  0  0
   47.7709   33.5372   46.9723 H   0  0  0  0  0  0  0  0  0  0  0  0
   44.9937   33.3735   47.5177 H   0  0  0  0  0  0  0  0  0  0  0  0
   44.9891   31.8299   47.5411 H   0  0  0  0  0  0  0  0  0  0  0  0
  1  2  1  0
  2  3  2  0
  2 13  1  0
  4  3  1  0
  5  4  2  0
  6  1  2  0
  6  5  1  0
  7 12  1  0
  7  1  1  0
  8  7  1  0
  9 10  1  0
  9  8  1  0
 10 11  1  0
 11 12  1  0
 13 14  1  0
 13 15  1  0
 14 15  1  0
  3 16  1  0
  5 17  1  0
  8 18  1  0
  8 19  1  0
  9 20  1  0
  9 21  1  0
 10 22  1  0
 11 23  1  0
 11 24  1  0
 12 25  1  0
 12 26  1  0
 13 27  1  0
 14 28  1  0
 14 29  1  0
 15 30  1  0
 15 31  1  0
M  ISO  8  16  14  17  14  18  13  19  13  20  13  21  13  22   5  23  13
M  ISO  8  24  13  25  13  26  13  27  13  28  13  29  13  30  13  31  13
M  END
>  <minimizedAffinity>  (1) 
-4.7840395

>  <minimizedRMSD>  (1) 
4.40336752

$$$$
