
     RDKit          3D

 19 20  0  0  0  0  0  0  0  0999 V2000
   45.2690   35.4950   43.7540 C   0  0  0  0  0  0  0  0  0  0  0  0
   46.3780   34.7710   43.2380 C   0  0  0  0  0  0  0  0  0  0  0  0
   46.9210   33.7400   43.9950 C   0  0  0  0  0  0  0  0  0  0  0  0
   46.3420   33.4770   45.2220 N   0  0  0  0  0  0  0  0  0  0  0  0
   45.2820   34.1900   45.6820 C   0  0  0  0  0  0  0  0  0  0  0  0
   44.7490   35.2030   44.9350 N   0  0  0  0  0  0  0  0  0  0  0  0
   47.0610   35.0780   41.9370 C   0  0  0  0  0  0  0  0  0  0  0  0
   48.0090   34.1630   41.3820 C   0  0  0  0  0  0  0  0  0  0  0  0
   46.6680   34.2290   40.7110 C   0  0  0  0  0  0  0  0  0  0  0  0
   44.6430   36.5380   43.0380 N   0  0  0  0  0  0  0  0  0  0  0  0
   47.7790   33.1555   43.6315 H   0  0  0  0  0  0  0  0  0  0  0  0
   44.8485   33.9504   46.6642 H   0  0  0  0  0  0  0  0  0  0  0  0
   47.0969   36.1502   42.1802 H   0  0  0  0  0  0  0  0  0  0  0  0
   48.8945   34.5535   40.8591 H   0  0  0  0  0  0  0  0  0  0  0  0
   48.6041   33.3403   41.8050 H   0  0  0  0  0  0  0  0  0  0  0  0
   46.5594   34.6927   39.7194 H   0  0  0  0  0  0  0  0  0  0  0  0
   45.8673   33.5210   40.4512 H   0  0  0  0  0  0  0  0  0  0  0  0
   45.0000   36.8136   42.1120 H   0  0  0  0  0  0  0  0  0  0  0  0
   43.8292   37.0235   43.4415 H   0  0  0  0  0  0  0  0  0  0  0  0
  1  6  2  0
  2  1  1  0
  2  3  2  0
  3  4  1  0
  4  5  2  0
  6  5  1  0
  7  2  1  0
  8  7  1  0
  9  8  1  0
  9  7  1  0
 10  1  1  0
  3 11  1  0
  5 12  1  0
  7 13  1  0
  8 14  1  0
  8 15  1  0
  9 16  1  0
  9 17  1  0
 10 18  1  0
 10 19  1  0
M  ISO  7  11  14  12  14  13  13  14  13  15  13  16  13  17  13
M  END
>  <minimizedAffinity>  (1) 
-3.80540037

>  <minimizedRMSD>  (1) 
1.72630775

$$$$
