
     RDKit          3D

 18 19  0  0  0  0  0  0  0  0999 V2000
   45.8250   34.7390   43.8020 C   0  0  0  0  0  0  0  0  0  0  0  0
   46.9120   34.0710   43.2140 C   0  0  0  0  0  0  0  0  0  0  0  0
   47.4940   33.0420   43.9430 C   0  0  0  0  0  0  0  0  0  0  0  0
   46.9810   32.7420   45.1810 N   0  0  0  0  0  0  0  0  0  0  0  0
   45.9280   33.4140   45.7120 C   0  0  0  0  0  0  0  0  0  0  0  0
   45.3480   34.4290   45.0010 N   0  0  0  0  0  0  0  0  0  0  0  0
   47.5250   34.4370   41.9050 C   0  0  0  0  0  0  0  0  0  0  0  0
   48.4420   35.5240   41.7960 C   0  0  0  0  0  0  0  0  0  0  0  0
   49.0360   34.1470   41.7180 C   0  0  0  0  0  0  0  0  0  0  0  0
   44.9090   36.0410   43.0170 S   0  0  0  0  0  0  0  0  0  0  0  0
   48.3477   32.4793   43.5373 H   0  0  0  0  0  0  0  0  0  0  0  0
   45.5437   33.1445   46.7068 H   0  0  0  0  0  0  0  0  0  0  0  0
   46.5930   34.1825   41.3791 H   0  0  0  0  0  0  0  0  0  0  0  0
   48.4248   36.1554   40.8954 H   0  0  0  0  0  0  0  0  0  0  0  0
   48.6507   36.4010   42.4263 H   0  0  0  0  0  0  0  0  0  0  0  0
   49.4185   33.7536   40.7646 H   0  0  0  0  0  0  0  0  0  0  0  0
   49.8151   33.5783   42.2468 H   0  0  0  0  0  0  0  0  0  0  0  0
   44.3446   36.8432   43.9735 H   0  0  0  0  0  0  0  0  0  0  0  0
  1  6  2  0
  2  1  1  0
  2  3  2  0
  3  4  1  0
  4  5  2  0
  6  5  1  0
  7  2  1  0
  8  7  1  0
  9  8  1  0
  9  7  1  0
 10  1  1  0
  3 11  1  0
  5 12  1  0
  7 13  1  0
  8 14  1  0
  8 15  1  0
  9 16  1  0
  9 17  1  0
 10 18  1  0
M  ISO  8  11  14  12  14  13  13  14  13  15  13  16  13  17  13  18  11
M  END
>  <minimizedAffinity>  (1) 
-3.48356438

>  <minimizedRMSD>  (1) 
1.35651302

$$$$
