
     RDKit          3D

 33 35  0  0  0  0  0  0  0  0999 V2000
   46.2410   34.3970   43.5650 C   0  0  0  0  0  0  0  0  0  0  0  0
   47.4270   33.8690   43.1720 C   0  0  0  0  0  0  0  0  0  0  0  0
   47.8760   32.7980   43.9130 C   0  0  0  0  0  0  0  0  0  0  0  0
   47.0930   32.3590   44.9780 N   0  0  0  0  0  0  0  0  0  0  0  0
   45.9310   32.9230   45.3180 C   0  0  0  0  0  0  0  0  0  0  0  0
   45.4620   33.9940   44.5920 N   0  0  0  0  0  0  0  0  0  0  0  0
   45.4940   35.4540   42.9190 C   0  0  0  0  0  0  0  0  0  0  0  0
   45.0610   36.5300   42.6310 O   0  0  0  0  0  0  0  0  0  0  0  0
   44.6020   35.0610   41.8360 N   0  0  0  0  0  0  0  0  0  0  0  0
   43.2940   35.6390   41.8370 C   0  0  0  0  0  0  0  0  0  0  0  0
   42.5210   35.2570   40.6110 C   0  0  0  0  0  0  0  0  0  0  0  0
   42.5070   33.8490   40.3430 N   0  0  0  0  0  0  0  0  0  0  0  0
   43.7490   33.1870   40.6420 C   0  0  0  0  0  0  0  0  0  0  0  0
   44.9050   34.1500   40.7640 C   0  0  0  0  0  0  0  0  0  0  0  0
   48.2500   34.3600   42.1280 C   0  0  0  0  0  0  0  0  0  0  0  0
   48.5230   35.6300   41.7390 C   0  0  0  0  0  0  0  0  0  0  0  0
   49.6710   34.9650   42.4960 C   0  0  0  0  0  0  0  0  0  0  0  0
   48.8276   32.3027   43.6701 H   0  0  0  0  0  0  0  0  0  0  0  0
   45.3541   32.5350   46.1705 H   0  0  0  0  0  0  0  0  0  0  0  0
   42.7494   35.2883   42.7261 H   0  0  0  0  0  0  0  0  0  0  0  0
   43.4016   36.7337   41.8487 H   0  0  0  0  0  0  0  0  0  0  0  0
   41.4819   35.5947   40.7386 H   0  0  0  0  0  0  0  0  0  0  0  0
   43.0221   35.7373   39.7577 H   0  0  0  0  0  0  0  0  0  0  0  0
   41.7644   33.4178   40.9118 H   0  0  0  0  0  0  0  0  0  0  0  0
   43.6396   32.6455   41.5932 H   0  0  0  0  0  0  0  0  0  0  0  0
   43.9712   32.5033   39.8094 H   0  0  0  0  0  0  0  0  0  0  0  0
   45.8298   33.5990   40.9903 H   0  0  0  0  0  0  0  0  0  0  0  0
   45.0520   34.6980   39.8216 H   0  0  0  0  0  0  0  0  0  0  0  0
   47.8116   33.5342   41.5484 H   0  0  0  0  0  0  0  0  0  0  0  0
   48.6463   35.8421   40.6667 H   0  0  0  0  0  0  0  0  0  0  0  0
   47.9896   36.5795   41.8939 H   0  0  0  0  0  0  0  0  0  0  0  0
   49.9194   35.2547   43.5277 H   0  0  0  0  0  0  0  0  0  0  0  0
   50.7334   34.7274   42.3386 H   0  0  0  0  0  0  0  0  0  0  0  0
  1  6  2  0
  2  1  1  0
  2  3  2  0
  3  4  1  0
  4  5  2  0
  6  5  1  0
  7  1  1  0
  8  7  2  0
  9 10  1  0
  9  7  1  0
 11 10  1  0
 12 11  1  0
 12 13  1  0
 13 14  1  0
 14  9  1  0
 15 17  1  0
 15  2  1  0
 16 15  1  0
 16 17  1  0
  3 18  1  0
  5 19  1  0
 10 20  1  0
 10 21  1  0
 11 22  1  0
 11 23  1  0
 12 24  1  0
 13 25  1  0
 13 26  1  0
 14 27  1  0
 14 28  1  0
 15 29  1  0
 16 30  1  0
 16 31  1  0
 17 32  1  0
 17 33  1  0
M  ISO  8  18  14  19  14  20  13  21  13  22  13  23  13  24   5  25  13
M  ISO  8  26  13  27  13  28  13  29  13  30  13  31  13  32  13  33  13
M  END
>  <minimizedAffinity>  (1) 
-4.82644081

>  <minimizedRMSD>  (1) 
0.839949608

$$$$
