
     RDKit          3D

 32 34  0  0  0  0  0  0  0  0999 V2000
   46.1200   34.1490   44.0820 C   0  0  0  0  0  0  0  0  0  0  0  0
   45.9550   34.9690   43.0320 C   0  0  0  0  0  0  0  0  0  0  0  0
   45.0790   36.0150   43.2500 C   0  0  0  0  0  0  0  0  0  0  0  0
   44.4600   36.1290   44.4910 N   0  0  0  0  0  0  0  0  0  0  0  0
   44.6680   35.2830   45.4810 C   0  0  0  0  0  0  0  0  0  0  0  0
   45.5330   34.2270   45.3080 N   0  0  0  0  0  0  0  0  0  0  0  0
   46.5370   34.8020   41.7610 C   0  0  0  0  0  0  0  0  0  0  0  0
   47.0280   33.6980   41.1330 C   0  0  0  0  0  0  0  0  0  0  0  0
   45.6640   34.1470   40.6060 C   0  0  0  0  0  0  0  0  0  0  0  0
   47.0780   33.0490   44.2270 C   0  0  0  0  0  0  0  0  0  0  0  0
   48.1600   32.5610   43.9070 O   0  0  0  0  0  0  0  0  0  0  0  0
   45.8230   30.8980   44.8750 C   0  0  0  0  0  0  0  0  0  0  0  0
   46.5770   32.0070   45.1690 C   0  0  0  0  0  0  0  0  0  0  0  0
   46.9490   32.0940   46.5250 C   0  0  0  0  0  0  0  0  0  0  0  0
   46.6550   31.2230   47.5510 C   0  0  0  0  0  0  0  0  0  0  0  0
   45.9000   30.1360   47.1840 C   0  0  0  0  0  0  0  0  0  0  0  0
   45.4940   29.9760   45.8790 C   0  0  0  0  0  0  0  0  0  0  0  0
   45.2210   30.7200   43.2800 S   0  0  0  0  0  0  0  0  0  0  0  0
   46.2000   30.5160   42.2010 O   0  0  0  0  0  0  0  0  0  0  0  0
   44.2130   31.8120   42.9250 O   0  0  0  0  0  0  0  0  0  0  0  0
   44.8740   36.7466   42.4545 H   0  0  0  0  0  0  0  0  0  0  0  0
   44.1515   35.4211   46.4423 H   0  0  0  0  0  0  0  0  0  0  0  0
   47.0506   35.7438   42.0043 H   0  0  0  0  0  0  0  0  0  0  0  0
   47.9097   33.8039   40.4838 H   0  0  0  0  0  0  0  0  0  0  0  0
   47.3907   32.7320   41.5140 H   0  0  0  0  0  0  0  0  0  0  0  0
   45.5619   34.6300   39.6230 H   0  0  0  0  0  0  0  0  0  0  0  0
   44.6550   33.7296   40.4730 H   0  0  0  0  0  0  0  0  0  0  0  0
   47.5526   32.9714   46.8003 H   0  0  0  0  0  0  0  0  0  0  0  0
   46.9981   31.3854   48.5834 H   0  0  0  0  0  0  0  0  0  0  0  0
   45.6177   29.3876   47.9391 H   0  0  0  0  0  0  0  0  0  0  0  0
   44.8909   29.0949   45.6144 H   0  0  0  0  0  0  0  0  0  0  0  0
   44.5848   29.5083   43.3428 H   0  0  0  0  0  0  0  0  0  0  0  0
  1 10  1  0
  1  6  2  0
  2  3  2  0
  2  1  1  0
  3  4  1  0
  4  5  2  0
  6  5  1  0
  7  2  1  0
  8  7  1  0
  9  8  1  0
  9  7  1  0
 10 13  1  0
 11 10  2  0
 12 13  2  0
 12 17  1  0
 13 14  1  0
 14 15  2  0
 16 15  1  0
 17 16  2  0
 18 12  1  0
 19 18  2  0
 20 18  2  0
  3 21  1  0
  5 22  1  0
  7 23  1  0
  8 24  1  0
  8 25  1  0
  9 26  1  0
  9 27  1  0
 14 28  1  0
 15 29  1  0
 16 30  1  0
 17 31  1  0
 18 32  1  0
M  ISO  8  21  14  22  14  23  13  24  13  25  13  26  13  27  13  28  14
M  ISO  4  29  14  30  14  31  14  32  11
M  END
>  <minimizedAffinity>  (1) 
-4.67455769

>  <minimizedRMSD>  (1) 
5.38777113

$$$$
