
     RDKit          3D

 29 31  0  0  0  0  0  0  0  0999 V2000
   47.5350   32.8470   43.9210 C   0  0  0  0  0  0  0  0  0  0  0  0
   48.3830   33.3800   43.0130 C   0  0  0  0  0  0  0  0  0  0  0  0
   49.2420   32.4820   42.4170 C   0  0  0  0  0  0  0  0  0  0  0  0
   49.1730   31.1340   42.7880 N   0  0  0  0  0  0  0  0  0  0  0  0
   48.3180   30.6860   43.6850 C   0  0  0  0  0  0  0  0  0  0  0  0
   47.4410   31.5480   44.3060 N   0  0  0  0  0  0  0  0  0  0  0  0
   48.4960   34.7540   42.6950 C   0  0  0  0  0  0  0  0  0  0  0  0
   49.4990   35.4490   42.1040 C   0  0  0  0  0  0  0  0  0  0  0  0
   48.3070   35.2000   41.1820 C   0  0  0  0  0  0  0  0  0  0  0  0
   46.4450   33.5250   44.6070 C   0  0  0  0  0  0  0  0  0  0  0  0
   45.8690   33.8820   45.6210 O   0  0  0  0  0  0  0  0  0  0  0  0
   44.6790   31.6630   42.9200 Cl  0  0  0  0  0  0  0  0  0  0  0  0
   44.6400   33.4100   42.7570 C   0  0  0  0  0  0  0  0  0  0  0  0
   45.5150   34.1060   43.5950 C   0  0  0  0  0  0  0  0  0  0  0  0
   45.4470   35.4930   43.4120 C   0  0  0  0  0  0  0  0  0  0  0  0
   44.6550   36.1810   42.5460 C   0  0  0  0  0  0  0  0  0  0  0  0
   43.8330   35.4350   41.7670 C   0  0  0  0  0  0  0  0  0  0  0  0
   43.8110   34.0790   41.8560 C   0  0  0  0  0  0  0  0  0  0  0  0
   49.9689   32.8186   41.6631 H   0  0  0  0  0  0  0  0  0  0  0  0
   48.3044   29.6160   43.9398 H   0  0  0  0  0  0  0  0  0  0  0  0
   48.0367   34.9050   43.6830 H   0  0  0  0  0  0  0  0  0  0  0  0
   49.7040   36.4758   42.4413 H   0  0  0  0  0  0  0  0  0  0  0  0
   50.5734   35.2413   41.9922 H   0  0  0  0  0  0  0  0  0  0  0  0
   47.6174   36.0116   40.9069 H   0  0  0  0  0  0  0  0  0  0  0  0
   48.1033   34.7363   40.2055 H   0  0  0  0  0  0  0  0  0  0  0  0
   46.1136   36.0982   44.0440 H   0  0  0  0  0  0  0  0  0  0  0  0
   44.6799   37.2788   42.4814 H   0  0  0  0  0  0  0  0  0  0  0  0
   43.1699   35.9381   41.0478 H   0  0  0  0  0  0  0  0  0  0  0  0
   43.1320   33.5025   41.2105 H   0  0  0  0  0  0  0  0  0  0  0  0
  1  6  1  0
  1 10  1  0
  2  1  2  0
  3  4  2  0
  3  2  1  0
  4  5  1  0
  5  6  2  0
  7  2  1  0
  8  7  1  0
  9  8  1  0
  9  7  1  0
 10 11  2  0
 13 12  1  0
 13 14  2  0
 14 10  1  0
 15 14  1  0
 16 15  2  0
 17 18  2  0
 17 16  1  0
 18 13  1  0
  3 19  1  0
  5 20  1  0
  7 21  1  0
  8 22  1  0
  8 23  1  0
  9 24  1  0
  9 25  1  0
 15 26  1  0
 16 27  1  0
 17 28  1  0
 18 29  1  0
M  ISO  8  19  14  20  14  21  13  22  13  23  13  24  13  25  13  26  14
M  ISO  3  27  14  28  14  29  14
M  END
>  <minimizedAffinity>  (1) 
-4.82951546

>  <minimizedRMSD>  (1) 
2.50640345

$$$$
