
     RDKit          3D

 39 42  0  0  0  0  0  0  0  0999 V2000
   44.5100   31.8160   42.8890 Cl  0  0  0  0  0  0  0  0  0  0  0  0
   44.5820   33.5770   42.7960 C   0  0  0  0  0  0  0  0  0  0  0  0
   45.4500   34.1940   43.7190 C   0  0  0  0  0  0  0  0  0  0  0  0
   45.4310   35.5700   43.5560 C   0  0  0  0  0  0  0  0  0  0  0  0
   44.7390   36.3250   42.6910 C   0  0  0  0  0  0  0  0  0  0  0  0
   43.9220   35.6480   41.8320 C   0  0  0  0  0  0  0  0  0  0  0  0
   43.8310   34.3020   41.8670 C   0  0  0  0  0  0  0  0  0  0  0  0
   45.3380   33.4150   39.5100 Cl  0  0  0  0  0  0  0  0  0  0  0  0
   43.6580   33.0120   39.8750 C   0  0  0  0  0  0  0  0  0  0  0  0
   42.9840   33.4500   40.9960 C   0  0  0  0  0  0  0  0  0  0  0  0
   41.6690   33.1000   41.2240 C   0  0  0  0  0  0  0  0  0  0  0  0
   41.0410   32.2920   40.2920 C   0  0  0  0  0  0  0  0  0  0  0  0
   41.7300   31.8570   39.1660 C   0  0  0  0  0  0  0  0  0  0  0  0
   40.8640   30.8370   38.0340 Cl  0  0  0  0  0  0  0  0  0  0  0  0
   43.0560   32.2070   38.9300 C   0  0  0  0  0  0  0  0  0  0  0  0
   46.3050   33.5150   44.7340 C   0  0  0  0  0  0  0  0  0  0  0  0
   45.7260   33.8900   45.7230 O   0  0  0  0  0  0  0  0  0  0  0  0
   47.3630   32.7730   44.0330 C   0  0  0  0  0  0  0  0  0  0  0  0
   48.2100   33.2630   43.1190 C   0  0  0  0  0  0  0  0  0  0  0  0
   49.0450   32.3270   42.5410 C   0  0  0  0  0  0  0  0  0  0  0  0
   48.9370   30.9870   42.9500 N   0  0  0  0  0  0  0  0  0  0  0  0
   48.0790   30.5810   43.8590 C   0  0  0  0  0  0  0  0  0  0  0  0
   47.2280   31.4890   44.4560 N   0  0  0  0  0  0  0  0  0  0  0  0
   48.3970   34.6360   42.7940 C   0  0  0  0  0  0  0  0  0  0  0  0
   49.4190   35.2220   42.1160 C   0  0  0  0  0  0  0  0  0  0  0  0
   48.1830   35.0420   41.2760 C   0  0  0  0  0  0  0  0  0  0  0  0
   46.0844   36.1289   44.2421 H   0  0  0  0  0  0  0  0  0  0  0  0
   44.8242   37.4216   42.6744 H   0  0  0  0  0  0  0  0  0  0  0  0
   43.3267   36.2102   41.0975 H   0  0  0  0  0  0  0  0  0  0  0  0
   41.1359   33.4524   42.1193 H   0  0  0  0  0  0  0  0  0  0  0  0
   39.9932   31.9932   40.4430 H   0  0  0  0  0  0  0  0  0  0  0  0
   43.5960   31.8600   38.0367 H   0  0  0  0  0  0  0  0  0  0  0  0
   49.7786   32.6240   41.7771 H   0  0  0  0  0  0  0  0  0  0  0  0
   48.0392   29.5192   44.1436 H   0  0  0  0  0  0  0  0  0  0  0  0
   48.0011   34.8623   43.7950 H   0  0  0  0  0  0  0  0  0  0  0  0
   49.7251   36.2407   42.3962 H   0  0  0  0  0  0  0  0  0  0  0  0
   50.4646   34.9189   41.9581 H   0  0  0  0  0  0  0  0  0  0  0  0
   47.5522   35.8992   40.9981 H   0  0  0  0  0  0  0  0  0  0  0  0
   47.8962   34.5602   40.3296 H   0  0  0  0  0  0  0  0  0  0  0  0
  2  1  1  0
  2  3  2  0
  3 16  1  0
  4  3  1  0
  5  4  2  0
  6  7  2  0
  6  5  1  0
  7  2  1  0
  8  9  1  0
  9 10  2  0
 10 11  1  0
 10  7  1  0
 12 11  2  0
 13 12  1  0
 14 13  1  0
 15 13  2  0
 15  9  1  0
 16 17  2  0
 18 23  1  0
 18 16  1  0
 19 18  2  0
 20 21  2  0
 20 19  1  0
 21 22  1  0
 22 23  2  0
 24 19  1  0
 25 24  1  0
 26 25  1  0
 26 24  1  0
  4 27  1  0
  5 28  1  0
  6 29  1  0
 11 30  1  0
 12 31  1  0
 15 32  1  0
 20 33  1  0
 22 34  1  0
 24 35  1  0
 25 36  1  0
 25 37  1  0
 26 38  1  0
 26 39  1  0
M  ISO  8  27  14  28  14  29  14  30  14  31  14  32  14  33  14  34  14
M  ISO  5  35  13  36  13  37  13  38  13  39  13
M  END
>  <minimizedAffinity>  (1) 
-5.74644327

>  <minimizedRMSD>  (1) 
0.361809939

$$$$
