
     RDKit          3D

 22 23  0  0  0  0  0  0  0  0999 V2000
   44.7900   33.2010   41.0830 Cl  0  0  0  0  0  0  0  0  0  0  0  0
   46.3320   34.0030   40.8980 C   0  0  0  0  0  0  0  0  0  0  0  0
   46.8500   34.7460   41.9160 C   0  0  0  0  0  0  0  0  0  0  0  0
   48.0810   35.3950   41.7930 C   0  0  0  0  0  0  0  0  0  0  0  0
   48.7280   35.2360   40.5850 C   0  0  0  0  0  0  0  0  0  0  0  0
   48.2060   34.4920   39.5670 C   0  0  0  0  0  0  0  0  0  0  0  0
   47.0100   33.8690   39.7080 C   0  0  0  0  0  0  0  0  0  0  0  0
   45.6130   34.0360   45.3080 C   0  0  0  0  0  0  0  0  0  0  0  0
   44.7130   35.1020   45.5330 C   0  0  0  0  0  0  0  0  0  0  0  0
   44.5500   36.0380   44.5240 C   0  0  0  0  0  0  0  0  0  0  0  0
   45.2530   35.8900   43.3790 N   0  0  0  0  0  0  0  0  0  0  0  0
   46.1070   34.8710   43.1730 C   0  0  0  0  0  0  0  0  0  0  0  0
   46.2850   33.9400   44.1480 N   0  0  0  0  0  0  0  0  0  0  0  0
   46.4850   33.0810   38.5980 C   0  0  0  0  0  0  0  0  0  0  0  0
   46.6560   33.4190   37.4120 O   0  0  0  0  0  0  0  0  0  0  0  0
   48.5082   35.9959   42.6093 H   0  0  0  0  0  0  0  0  0  0  0  0
   49.7010   35.7273   40.4368 H   0  0  0  0  0  0  0  0  0  0  0  0
   48.7613   34.3967   38.6222 H   0  0  0  0  0  0  0  0  0  0  0  0
   45.7651   33.2774   46.0899 H   0  0  0  0  0  0  0  0  0  0  0  0
   44.1590   35.1863   46.4796 H   0  0  0  0  0  0  0  0  0  0  0  0
   43.8611   36.8859   44.6526 H   0  0  0  0  0  0  0  0  0  0  0  0
   45.9217   32.1615   38.8153 H   0  0  0  0  0  0  0  0  0  0  0  0
  2  1  1  0
  2  3  2  0
  3 12  1  0
  4  3  1  0
  5  4  2  0
  6  7  2  0
  6  5  1  0
  7  2  1  0
  8  9  2  0
 10  9  1  0
 11 10  2  0
 12 11  1  0
 12 13  2  0
 13  8  1  0
 14  7  1  0
 15 14  2  0
  4 16  1  0
  5 17  1  0
  6 18  1  0
  8 19  1  0
  9 20  1  0
 10 21  1  0
 14 22  1  0
M  ISO  7  16  14  17  14  18  14  19  14  20  14  21  14  22   6
M  END
>  <minimizedAffinity>  (1) 
-5.07510805

>  <minimizedRMSD>  (1) 
0.174828619

$$$$
