
     RDKit          3D

 35 37  0  0  0  0  0  0  0  0999 V2000
   46.3470   33.5210   44.6930 C   0  0  0  0  0  0  0  0  0  0  0  0
   45.7870   33.8930   45.6970 O   0  0  0  0  0  0  0  0  0  0  0  0
   44.4860   31.7980   42.9520 Cl  0  0  0  0  0  0  0  0  0  0  0  0
   44.5570   33.5470   42.8230 C   0  0  0  0  0  0  0  0  0  0  0  0
   45.4580   34.1850   43.7000 C   0  0  0  0  0  0  0  0  0  0  0  0
   45.4350   35.5610   43.5180 C   0  0  0  0  0  0  0  0  0  0  0  0
   44.7140   36.3030   42.6650 C   0  0  0  0  0  0  0  0  0  0  0  0
   43.8640   35.6120   41.8480 C   0  0  0  0  0  0  0  0  0  0  0  0
   43.7690   34.2470   41.9100 C   0  0  0  0  0  0  0  0  0  0  0  0
   42.8850   33.6900   41.0410 O   0  0  0  0  0  0  0  0  0  0  0  0
   40.6220   33.0770   39.8680 O   0  0  0  0  0  0  0  0  0  0  0  0
   41.2480   33.3250   41.2210 P   0  0  0  0  0  0  0  0  0  0  0  0
   41.0820   31.9700   42.2280 O   0  0  0  0  0  0  0  0  0  0  0  0
   40.4310   34.5890   42.0160 O   0  0  0  0  0  0  0  0  0  0  0  0
   47.3960   32.7880   43.9740 C   0  0  0  0  0  0  0  0  0  0  0  0
   48.2610   33.3010   43.0860 C   0  0  0  0  0  0  0  0  0  0  0  0
   49.0790   32.3740   42.4820 C   0  0  0  0  0  0  0  0  0  0  0  0
   48.9460   31.0220   42.8400 N   0  0  0  0  0  0  0  0  0  0  0  0
   48.0780   30.5930   43.7220 C   0  0  0  0  0  0  0  0  0  0  0  0
   47.2360   31.4870   44.3490 N   0  0  0  0  0  0  0  0  0  0  0  0
   48.4720   34.6790   42.8140 C   0  0  0  0  0  0  0  0  0  0  0  0
   49.5130   35.2650   42.1640 C   0  0  0  0  0  0  0  0  0  0  0  0
   48.2830   35.1440   41.3070 C   0  0  0  0  0  0  0  0  0  0  0  0
   46.1113   36.1293   44.1734 H   0  0  0  0  0  0  0  0  0  0  0  0
   44.8012   37.3988   42.6254 H   0  0  0  0  0  0  0  0  0  0  0  0
   43.2436   36.1631   41.1260 H   0  0  0  0  0  0  0  0  0  0  0  0
   41.1171   32.2564   43.1750 H   0  0  0  0  0  0  0  0  0  0  0  0
   40.5093   34.4679   42.9954 H   0  0  0  0  0  0  0  0  0  0  0  0
   49.8225   32.6854   41.7335 H   0  0  0  0  0  0  0  0  0  0  0  0
   48.0208   29.5211   43.9622 H   0  0  0  0  0  0  0  0  0  0  0  0
   48.0676   34.8792   43.8172 H   0  0  0  0  0  0  0  0  0  0  0  0
   49.8397   36.2659   42.4824 H   0  0  0  0  0  0  0  0  0  0  0  0
   50.5526   34.9428   42.0043 H   0  0  0  0  0  0  0  0  0  0  0  0
   47.6751   36.0251   41.0537 H   0  0  0  0  0  0  0  0  0  0  0  0
   47.9950   34.7028   40.3414 H   0  0  0  0  0  0  0  0  0  0  0  0
  1  2  2  0
  4  3  1  0
  4  5  2  0
  5  1  1  0
  6  5  1  0
  7  6  2  0
  8  9  2  0
  8  7  1  0
  9  4  1  0
 10 12  1  0
 10  9  1  0
 11 12  2  0
 12 14  1  0
 12 13  1  0
 15 20  1  0
 15  1  1  0
 16 15  2  0
 17 18  2  0
 17 16  1  0
 18 19  1  0
 19 20  2  0
 21 16  1  0
 22 21  1  0
 23 22  1  0
 23 21  1  0
  6 24  1  0
  7 25  1  0
  8 26  1  0
 13 27  1  0
 14 28  1  0
 17 29  1  0
 19 30  1  0
 21 31  1  0
 22 32  1  0
 22 33  1  0
 23 34  1  0
 23 35  1  0
M  ISO  8  24  14  25  14  26  14  27   3  28   3  29  14  30  14  31  13
M  ISO  4  32  13  33  13  34  13  35  13
M  END
>  <minimizedAffinity>  (1) 
-5.6307106

>  <minimizedRMSD>  (1) 
1.34094381

$$$$
