
     RDKit          3D

 48 51  0  0  1  0  0  0  0  0999 V2000
   47.3520   32.8170   44.0640 C   0  0  0  0  0  0  0  0  0  0  0  0
   48.0960   33.2800   43.0630 C   0  0  0  0  0  0  0  0  0  0  0  0
   48.9580   32.3510   42.5180 C   0  0  0  0  0  0  0  0  0  0  0  0
   48.9750   31.0510   43.0490 N   0  0  0  0  0  0  0  0  0  0  0  0
   48.2120   30.6700   44.0390 C   0  0  0  0  0  0  0  0  0  0  0  0
   47.3330   31.5620   44.6160 N   0  0  0  0  0  0  0  0  0  0  0  0
   48.1780   34.6090   42.5920 C   0  0  1  0  0  0  0  0  0  0  0  0
   49.0710   35.1410   41.7140 C   0  0  0  0  0  0  0  0  0  0  0  0
   47.7150   34.9000   41.1160 C   0  0  1  0  0  0  0  0  0  0  0  0
   47.6690   33.8650   40.1680 N   0  0  0  0  0  0  0  0  0  0  0  0
   46.5230   33.0850   40.0000 C   0  0  0  0  0  0  0  0  0  0  0  0
   45.8220   33.2950   38.6610 C   0  0  0  0  0  0  0  0  0  0  0  0
   46.8000   32.9250   37.7090 O   0  0  0  0  0  0  0  0  0  0  0  0
   47.7310   33.9300   37.7020 C   0  0  0  0  0  0  0  0  0  0  0  0
   48.3730   34.2640   38.9910 C   0  0  0  0  0  0  0  0  0  0  0  0
   46.2940   33.5610   44.7830 C   0  0  0  0  0  0  0  0  0  0  0  0
   45.7310   33.9490   45.7640 O   0  0  0  0  0  0  0  0  0  0  0  0
   44.4910   31.7930   43.0070 Cl  0  0  0  0  0  0  0  0  0  0  0  0
   44.5290   33.5510   42.8660 C   0  0  0  0  0  0  0  0  0  0  0  0
   45.4030   34.2080   43.7680 C   0  0  0  0  0  0  0  0  0  0  0  0
   45.3410   35.5680   43.5660 C   0  0  0  0  0  0  0  0  0  0  0  0
   44.6350   36.2910   42.7100 C   0  0  0  0  0  0  0  0  0  0  0  0
   43.8100   35.5760   41.8680 C   0  0  0  0  0  0  0  0  0  0  0  0
   43.7500   34.2190   41.9380 C   0  0  0  0  0  0  0  0  0  0  0  0
   42.8920   33.6230   41.0550 O   0  0  0  0  0  0  0  0  0  0  0  0
   40.6500   32.9720   39.8660 O   0  0  0  0  0  0  0  0  0  0  0  0
   41.2470   33.2480   41.2260 P   0  0  0  0  0  0  0  0  0  0  0  0
   41.0840   31.9090   42.2530 O   0  0  0  0  0  0  0  0  0  0  0  0
   40.4030   34.5040   41.9830 O   0  0  0  0  0  0  0  0  0  0  0  0
   49.6199   32.6235   41.6828 H   0  0  0  0  0  0  0  0  0  0  0  0
   48.2710   29.6370   44.4123 H   0  0  0  0  0  0  0  0  0  0  0  0
   47.9278   34.9094   43.6202 H   0  0  0  0  0  0  0  0  0  0  0  0
   49.4093   36.1771   41.8628 H   0  0  0  0  0  0  0  0  0  0  0  0
   50.0792   34.8266   41.4061 H   0  0  0  0  0  0  0  0  0  0  0  0
   46.8834   35.4437   40.6440 H   0  0  0  0  0  0  0  0  0  0  0  0
   46.8105   32.0261   40.0780 H   0  0  0  0  0  0  0  0  0  0  0  0
   45.8127   33.3890   40.7830 H   0  0  0  0  0  0  0  0  0  0  0  0
   44.9323   32.6533   38.5791 H   0  0  0  0  0  0  0  0  0  0  0  0
   45.4630   34.3258   38.5248 H   0  0  0  0  0  0  0  0  0  0  0  0
   48.5273   33.6388   37.0012 H   0  0  0  0  0  0  0  0  0  0  0  0
   47.1708   34.8340   37.4211 H   0  0  0  0  0  0  0  0  0  0  0  0
   48.4999   35.3560   39.0298 H   0  0  0  0  0  0  0  0  0  0  0  0
   49.3160   33.6978   39.0057 H   0  0  0  0  0  0  0  0  0  0  0  0
   45.9904   36.1565   44.2308 H   0  0  0  0  0  0  0  0  0  0  0  0
   44.7023   37.3883   42.6733 H   0  0  0  0  0  0  0  0  0  0  0  0
   43.1926   36.1097   41.1304 H   0  0  0  0  0  0  0  0  0  0  0  0
   41.1206   32.2096   43.1955 H   0  0  0  0  0  0  0  0  0  0  0  0
   40.4713   34.4024   42.9654 H   0  0  0  0  0  0  0  0  0  0  0  0
  1  6  1  0
  1 16  1  0
  2  1  2  0
  3  4  2  0
  3  2  1  0
  4  5  1  0
  5  6  2  0
  7  2  1  0
  8  7  1  0
  9  8  1  0
  9  7  1  0
 10 15  1  0
 10  9  1  0
 11 10  1  0
 12 11  1  0
 13 12  1  0
 14 13  1  0
 14 15  1  0
 16 17  2  0
 19 18  1  0
 19 20  2  0
 20 16  1  0
 21 20  1  0
 22 21  2  0
 23 24  2  0
 23 22  1  0
 24 19  1  0
 25 27  1  0
 25 24  1  0
 26 27  2  0
 27 29  1  0
 27 28  1  0
  3 30  1  0
  5 31  1  0
  7 32  1  1
  8 33  1  0
  8 34  1  0
  9 35  1  1
 11 36  1  0
 11 37  1  0
 12 38  1  0
 12 39  1  0
 14 40  1  0
 14 41  1  0
 15 42  1  0
 15 43  1  0
 21 44  1  0
 22 45  1  0
 23 46  1  0
 28 47  1  0
 29 48  1  0
M  ISO  8  30  14  31  14  32  13  33  13  34  13  35  13  36  13  37  13
M  ISO  8  38  13  39  13  40  13  41  13  42  13  43  13  44  14  45  14
M  ISO  3  46  14  47   3  48   3
M  END
>  <minimizedAffinity>  (1) 
-6.05548954

>  <minimizedRMSD>  (1) 
1.0855211

$$$$
