
     RDKit          3D

 20 21  0  0  0  0  0  0  0  0999 V2000
   47.0230   31.8750   45.5330 C   0  0  0  0  0  0  0  0  0  0  0  0
   45.0930   34.7840   44.2660 C   0  0  0  0  0  0  0  0  0  0  0  0
   45.8930   35.2240   43.2100 C   0  0  0  0  0  0  0  0  0  0  0  0
   47.0790   34.5160   42.9510 C   0  0  0  0  0  0  0  0  0  0  0  0
   47.3900   33.4510   43.7280 N   0  0  0  0  0  0  0  0  0  0  0  0
   46.5840   33.0560   44.7450 C   0  0  0  0  0  0  0  0  0  0  0  0
   45.4530   33.7230   45.0010 N   0  0  0  0  0  0  0  0  0  0  0  0
   46.4810   31.8960   46.9150 C   0  0  0  0  0  0  0  0  0  0  0  0
   47.1330   32.5770   47.9430 C   0  0  0  0  0  0  0  0  0  0  0  0
   46.4420   32.4450   49.1010 N   0  0  0  0  0  0  0  0  0  0  0  0
   45.3750   31.6880   48.7790 C   0  0  0  0  0  0  0  0  0  0  0  0
   45.3680   31.3420   47.4730 N   0  0  0  0  0  0  0  0  0  0  0  0
   48.1219   31.8696   45.5825 H   0  0  0  0  0  0  0  0  0  0  0  0
   46.6429   30.9722   45.0326 H   0  0  0  0  0  0  0  0  0  0  0  0
   44.1572   35.3139   44.4972 H   0  0  0  0  0  0  0  0  0  0  0  0
   45.6052   36.0943   42.6020 H   0  0  0  0  0  0  0  0  0  0  0  0
   47.7443   34.8219   42.1302 H   0  0  0  0  0  0  0  0  0  0  0  0
   48.0716   33.1394   47.8300 H   0  0  0  0  0  0  0  0  0  0  0  0
   46.6798   32.8367   50.0234 H   0  0  0  0  0  0  0  0  0  0  0  0
   44.5984   31.3862   49.4972 H   0  0  0  0  0  0  0  0  0  0  0  0
  1  8  1  0
  2  7  2  0
  3  2  1  0
  4  3  2  0
  4  5  1  0
  5  6  2  0
  6  7  1  0
  6  1  1  0
  8 12  1  0
  8  9  2  0
  9 10  1  0
 11 10  1  0
 12 11  2  0
  1 13  1  0
  1 14  1  0
  2 15  1  0
  3 16  1  0
  4 17  1  0
  9 18  1  0
 10 19  1  0
 11 20  1  0
M  ISO  8  13   8  14   8  15  14  16  14  17  14  18  14  19   9  20  14
M  END
>  <minimizedAffinity>  (1) 
-3.58852363

>  <minimizedRMSD>  (1) 
2.21375847

$$$$
