
     RDKit          3D

 14 14  0  0  0  0  0  0  0  0999 V2000
   44.5190   36.0050   44.5230 C   0  0  0  0  0  0  0  0  0  0  0  0
   45.2130   35.8800   43.3220 C   0  0  0  0  0  0  0  0  0  0  0  0
   46.1140   34.8230   43.1780 C   0  0  0  0  0  0  0  0  0  0  0  0
   46.2850   33.9510   44.2080 N   0  0  0  0  0  0  0  0  0  0  0  0
   45.5900   34.1010   45.3700 C   0  0  0  0  0  0  0  0  0  0  0  0
   44.7270   35.1140   45.5100 N   0  0  0  0  0  0  0  0  0  0  0  0
   45.8520   33.0930   46.4300 C   0  0  0  0  0  0  0  0  0  0  0  0
   46.5230   31.6130   45.6040 S   0  0  0  0  0  0  0  0  0  0  0  0
   43.8037   36.8287   44.6643 H   0  0  0  0  0  0  0  0  0  0  0  0
   45.0547   36.5986   42.5043 H   0  0  0  0  0  0  0  0  0  0  0  0
   46.6789   34.6969   42.2426 H   0  0  0  0  0  0  0  0  0  0  0  0
   46.5822   33.4859   47.1528 H   0  0  0  0  0  0  0  0  0  0  0  0
   44.9298   32.8520   46.9790 H   0  0  0  0  0  0  0  0  0  0  0  0
   46.9328   30.7092   46.5485 H   0  0  0  0  0  0  0  0  0  0  0  0
  1  6  2  0
  2  1  1  0
  3  2  2  0
  3  4  1  0
  4  5  2  0
  5  6  1  0
  5  7  1  0
  8  7  1  0
  1  9  1  0
  2 10  1  0
  3 11  1  0
  7 12  1  0
  7 13  1  0
  8 14  1  0
M  ISO  6   9  14  10  14  11  14  12   8  13   8  14  11
M  END
>  <minimizedAffinity>  (1) 
-3.01989603

>  <minimizedRMSD>  (1) 
0.627003908

$$$$
