
     RDKit          3D

 29 30  0  0  0  0  0  0  0  0999 V2000
   45.7930   33.1430   46.4620 C   0  0  0  0  0  0  0  0  0  0  0  0
   44.5160   36.0330   44.5010 C   0  0  0  0  0  0  0  0  0  0  0  0
   45.2270   35.8750   43.3130 C   0  0  0  0  0  0  0  0  0  0  0  0
   46.1170   34.8100   43.1900 C   0  0  0  0  0  0  0  0  0  0  0  0
   46.2770   33.9360   44.2340 N   0  0  0  0  0  0  0  0  0  0  0  0
   45.5690   34.1200   45.3760 C   0  0  0  0  0  0  0  0  0  0  0  0
   44.7110   35.1440   45.5020 N   0  0  0  0  0  0  0  0  0  0  0  0
   46.8750   31.8430   45.8030 S   0  0  0  0  0  0  0  0  0  0  0  0
   48.9730   29.6690   49.2560 N   0  0  0  0  0  0  0  0  0  0  0  0
   48.6080   28.9540   48.0850 C   0  0  0  0  0  0  0  0  0  0  0  0
   48.4830   29.8890   46.8780 C   0  0  0  0  0  0  0  0  0  0  0  0
   47.2970   30.7600   47.1860 C   0  0  0  0  0  0  0  0  0  0  0  0
   47.4600   31.4650   48.4900 C   0  0  0  0  0  0  0  0  0  0  0  0
   48.6930   31.0810   49.2450 C   0  0  0  0  0  0  0  0  0  0  0  0
   46.2757   33.6363   47.3186 H   0  0  0  0  0  0  0  0  0  0  0  0
   44.8388   32.7181   46.8068 H   0  0  0  0  0  0  0  0  0  0  0  0
   43.8083   36.8663   44.6228 H   0  0  0  0  0  0  0  0  0  0  0  0
   45.0873   36.5825   42.4824 H   0  0  0  0  0  0  0  0  0  0  0  0
   46.6882   34.6713   42.2602 H   0  0  0  0  0  0  0  0  0  0  0  0
   48.4659   29.2532   50.0503 H   0  0  0  0  0  0  0  0  0  0  0  0
   49.3771   28.1966   47.8733 H   0  0  0  0  0  0  0  0  0  0  0  0
   47.6312   28.4789   48.2587 H   0  0  0  0  0  0  0  0  0  0  0  0
   48.3110   29.3120   45.9574 H   0  0  0  0  0  0  0  0  0  0  0  0
   49.3977   30.4773   46.7129 H   0  0  0  0  0  0  0  0  0  0  0  0
   46.4193   30.1091   47.3128 H   0  0  0  0  0  0  0  0  0  0  0  0
   47.4980   32.5469   48.2948 H   0  0  0  0  0  0  0  0  0  0  0  0
   46.6031   31.1745   49.1156 H   0  0  0  0  0  0  0  0  0  0  0  0
   49.5500   31.5973   48.7879 H   0  0  0  0  0  0  0  0  0  0  0  0
   48.5217   31.3732   50.2915 H   0  0  0  0  0  0  0  0  0  0  0  0
  2  7  2  0
  3  2  1  0
  4  3  2  0
  4  5  1  0
  5  6  2  0
  6  7  1  0
  6  1  1  0
  8  1  1  0
  8 12  1  0
 10  9  1  0
 11 12  1  0
 11 10  1  0
 12 13  1  0
 13 14  1  0
 14  9  1  0
  1 15  1  0
  1 16  1  0
  2 17  1  0
  3 18  1  0
  4 19  1  0
  9 20  1  0
 10 21  1  0
 10 22  1  0
 11 23  1  0
 11 24  1  0
 12 25  1  0
 13 26  1  0
 13 27  1  0
 14 28  1  0
 14 29  1  0
M  ISO  8  15   8  16   8  17  14  18  14  19  14  20   5  21  13  22  13
M  ISO  7  23  13  24  13  25  13  26  13  27  13  28  13  29  13
M  END
>  <minimizedAffinity>  (1) 
-4.2291522

>  <minimizedRMSD>  (1) 
1.93045521

$$$$
