
     RDKit          3D

 24 25  0  0  0  0  0  0  0  0999 V2000
   45.4610   33.3480   46.7160 C   0  0  0  0  0  0  0  0  0  0  0  0
   44.6310   36.0580   44.3140 C   0  0  0  0  0  0  0  0  0  0  0  0
   45.4390   35.6950   43.2330 C   0  0  0  0  0  0  0  0  0  0  0  0
   46.2510   34.5490   43.3230 C   0  0  0  0  0  0  0  0  0  0  0  0
   46.2170   33.8220   44.4840 N   0  0  0  0  0  0  0  0  0  0  0  0
   45.4140   34.2090   45.5180 C   0  0  0  0  0  0  0  0  0  0  0  0
   44.6410   35.3020   45.4310 N   0  0  0  0  0  0  0  0  0  0  0  0
   46.2430   31.7790   46.2430 S   0  0  0  0  0  0  0  0  0  0  0  0
   47.4540   31.2370   47.4400 C   0  0  0  0  0  0  0  0  0  0  0  0
   48.0130   31.9690   48.4680 C   0  0  0  0  0  0  0  0  0  0  0  0
   48.9410   31.3760   49.2980 C   0  0  0  0  0  0  0  0  0  0  0  0
   49.3140   30.0540   49.1070 C   0  0  0  0  0  0  0  0  0  0  0  0
   48.7750   29.2960   48.0910 C   0  0  0  0  0  0  0  0  0  0  0  0
   47.8390   29.9070   47.2590 C   0  0  0  0  0  0  0  0  0  0  0  0
   46.0510   33.8370   47.5051 H   0  0  0  0  0  0  0  0  0  0  0  0
   44.4460   33.1703   47.1010 H   0  0  0  0  0  0  0  0  0  0  0  0
   43.9928   36.9520   44.2544 H   0  0  0  0  0  0  0  0  0  0  0  0
   45.4403   36.3023   42.3159 H   0  0  0  0  0  0  0  0  0  0  0  0
   46.8951   34.2453   42.4846 H   0  0  0  0  0  0  0  0  0  0  0  0
   47.7204   33.0178   48.6241 H   0  0  0  0  0  0  0  0  0  0  0  0
   49.3890   31.9562   50.1182 H   0  0  0  0  0  0  0  0  0  0  0  0
   50.0560   29.6012   49.7811 H   0  0  0  0  0  0  0  0  0  0  0  0
   49.0724   28.2475   47.9420 H   0  0  0  0  0  0  0  0  0  0  0  0
   47.3919   29.3267   46.4385 H   0  0  0  0  0  0  0  0  0  0  0  0
  2  7  2  0
  3  4  2  0
  3  2  1  0
  4  5  1  0
  5  6  2  0
  6  1  1  0
  7  6  1  0
  8  1  1  0
  8  9  1  0
  9 10  2  0
 10 11  1  0
 12 11  2  0
 13 12  1  0
 14  9  1  0
 14 13  2  0
  1 15  1  0
  1 16  1  0
  2 17  1  0
  3 18  1  0
  4 19  1  0
 10 20  1  0
 11 21  1  0
 12 22  1  0
 13 23  1  0
 14 24  1  0
M  ISO  8  15   8  16   8  17  14  18  14  19  14  20  14  21  14  22  14
M  ISO  2  23  14  24  14
M  END
>  <minimizedAffinity>  (1) 
-4.22014809

>  <minimizedRMSD>  (1) 
1.45741594

$$$$
