
     RDKit          3D

 26 28  0  0  0  0  0  0  0  0999 V2000
   44.8290   33.1670   41.1020 Cl  0  0  0  0  0  0  0  0  0  0  0  0
   46.3510   33.9590   40.9010 C   0  0  0  0  0  0  0  0  0  0  0  0
   46.8670   34.7310   41.9180 C   0  0  0  0  0  0  0  0  0  0  0  0
   48.0860   35.4060   41.7940 C   0  0  0  0  0  0  0  0  0  0  0  0
   48.7350   35.2480   40.5890 C   0  0  0  0  0  0  0  0  0  0  0  0
   48.2300   34.4890   39.5870 C   0  0  0  0  0  0  0  0  0  0  0  0
   47.0240   33.8260   39.7220 C   0  0  0  0  0  0  0  0  0  0  0  0
   45.5950   34.0600   45.3170 C   0  0  0  0  0  0  0  0  0  0  0  0
   44.7070   35.1180   45.5180 C   0  0  0  0  0  0  0  0  0  0  0  0
   44.5450   36.0490   44.5040 C   0  0  0  0  0  0  0  0  0  0  0  0
   45.2560   35.8940   43.3590 N   0  0  0  0  0  0  0  0  0  0  0  0
   46.1210   34.8560   43.1720 C   0  0  0  0  0  0  0  0  0  0  0  0
   46.2710   33.9600   44.1580 N   0  0  0  0  0  0  0  0  0  0  0  0
   46.6250   33.0630   38.5460 C   0  0  0  0  0  0  0  0  0  0  0  0
   46.8520   33.5760   37.2790 C   0  0  0  0  0  0  0  0  0  0  0  0
   46.1700   32.2880   36.1390 S   0  0  0  0  0  0  0  0  0  0  0  0
   45.6750   31.2370   37.6480 C   0  0  0  0  0  0  0  0  0  0  0  0
   46.0310   31.8950   38.4850 N   0  0  0  0  0  0  0  0  0  0  0  0
   48.4994   36.0227   42.6056 H   0  0  0  0  0  0  0  0  0  0  0  0
   49.6981   35.7566   40.4350 H   0  0  0  0  0  0  0  0  0  0  0  0
   48.7915   34.3981   38.6455 H   0  0  0  0  0  0  0  0  0  0  0  0
   45.7421   33.3080   46.1062 H   0  0  0  0  0  0  0  0  0  0  0  0
   44.1479   35.2109   46.4607 H   0  0  0  0  0  0  0  0  0  0  0  0
   43.8540   36.8963   44.6252 H   0  0  0  0  0  0  0  0  0  0  0  0
   47.3287   34.5307   37.0120 H   0  0  0  0  0  0  0  0  0  0  0  0
   45.1779   30.2566   37.6883 H   0  0  0  0  0  0  0  0  0  0  0  0
  2  1  1  0
  2  3  2  0
  3 12  1  0
  4  3  1  0
  5  4  2  0
  6  7  2  0
  6  5  1  0
  7  2  1  0
  8  9  2  0
 10  9  1  0
 11 10  2  0
 12 11  1  0
 12 13  2  0
 13  8  1  0
 14  7  1  0
 15 14  2  0
 16 15  1  0
 16 17  1  0
 17 18  2  0
 18 14  1  0
  4 19  1  0
  5 20  1  0
  6 21  1  0
  8 22  1  0
  9 23  1  0
 10 24  1  0
 15 25  1  0
 17 26  1  0
M  ISO  8  19  14  20  14  21  14  22  14  23  14  24  14  25  14  26  14
M  END
>  <minimizedAffinity>  (1) 
-5.43656778

>  <minimizedRMSD>  (1) 
0.15902026

$$$$
