
     RDKit          3D

 39 42  0  0  0  0  0  0  0  0999 V2000
   45.5700   33.1440   46.5410 C   0  0  0  0  0  0  0  0  0  0  0  0
   44.4130   36.2030   44.7810 C   0  0  0  0  0  0  0  0  0  0  0  0
   45.0940   36.0670   43.5540 C   0  0  0  0  0  0  0  0  0  0  0  0
   45.9160   34.9570   43.3620 C   0  0  0  0  0  0  0  0  0  0  0  0
   46.0390   34.0310   44.3680 N   0  0  0  0  0  0  0  0  0  0  0  0
   45.3650   34.2010   45.5340 C   0  0  0  0  0  0  0  0  0  0  0  0
   44.5710   35.2640   45.7320 N   0  0  0  0  0  0  0  0  0  0  0  0
   46.6530   34.7430   42.1260 C   0  0  0  0  0  0  0  0  0  0  0  0
   46.2110   33.9820   41.0670 C   0  0  0  0  0  0  0  0  0  0  0  0
   46.9350   33.7990   39.9100 C   0  0  0  0  0  0  0  0  0  0  0  0
   48.1660   34.3950   39.7740 C   0  0  0  0  0  0  0  0  0  0  0  0
   48.6560   35.1700   40.8110 C   0  0  0  0  0  0  0  0  0  0  0  0
   47.8870   35.3160   41.9430 C   0  0  0  0  0  0  0  0  0  0  0  0
   46.7760   31.9730   45.8850 S   0  0  0  0  0  0  0  0  0  0  0  0
   47.7240   31.2450   47.2010 C   0  0  0  0  0  0  0  0  0  0  0  0
   47.9930   32.0160   48.3090 C   0  0  0  0  0  0  0  0  0  0  0  0
   48.7200   31.4590   49.3220 C   0  0  0  0  0  0  0  0  0  0  0  0
   49.1920   30.1540   49.2710 C   0  0  0  0  0  0  0  0  0  0  0  0
   49.9070   29.6400   50.2930 N   0  0  0  0  0  0  0  0  0  0  0  0
   50.3700   28.3730   50.2560 C   0  0  0  0  0  0  0  0  0  0  0  0
   50.1090   27.5940   49.1510 C   0  0  0  0  0  0  0  0  0  0  0  0
   49.3730   28.1180   48.0950 C   0  0  0  0  0  0  0  0  0  0  0  0
   48.8890   29.4380   48.1340 C   0  0  0  0  0  0  0  0  0  0  0  0
   48.1630   29.9450   47.0870 C   0  0  0  0  0  0  0  0  0  0  0  0
   45.9489   33.5862   47.4742 H   0  0  0  0  0  0  0  0  0  0  0  0
   44.6201   32.6329   46.7565 H   0  0  0  0  0  0  0  0  0  0  0  0
   43.7584   37.0689   44.9594 H   0  0  0  0  0  0  0  0  0  0  0  0
   44.9790   36.8225   42.7628 H   0  0  0  0  0  0  0  0  0  0  0  0
   45.2282   33.4948   41.1495 H   0  0  0  0  0  0  0  0  0  0  0  0
   46.5296   33.1781   39.0976 H   0  0  0  0  0  0  0  0  0  0  0  0
   48.7535   34.2581   38.8542 H   0  0  0  0  0  0  0  0  0  0  0  0
   49.6384   35.6584   40.7320 H   0  0  0  0  0  0  0  0  0  0  0  0
   48.2893   35.9352   42.7583 H   0  0  0  0  0  0  0  0  0  0  0  0
   47.6321   33.0529   48.3767 H   0  0  0  0  0  0  0  0  0  0  0  0
   48.9400   32.0670   50.2119 H   0  0  0  0  0  0  0  0  0  0  0  0
   50.9491   27.9673   51.0987 H   0  0  0  0  0  0  0  0  0  0  0  0
   50.4819   26.5602   49.1042 H   0  0  0  0  0  0  0  0  0  0  0  0
   49.1658   27.4909   47.2153 H   0  0  0  0  0  0  0  0  0  0  0  0
   47.9412   29.3399   46.1956 H   0  0  0  0  0  0  0  0  0  0  0  0
  2  7  2  0
  3  2  1  0
  4  3  2  0
  4  5  1  0
  5  6  2  0
  6  7  1  0
  6  1  1  0
  8  4  1  0
  9  8  2  0
 10  9  1  0
 11 10  2  0
 11 12  1  0
 12 13  2  0
 13  8  1  0
 14  1  1  0
 14 15  1  0
 15 16  2  0
 16 17  1  0
 18 17  2  0
 18 19  1  0
 20 19  2  0
 21 20  1  0
 22 23  1  0
 22 21  2  0
 23 18  1  0
 24 15  1  0
 24 23  2  0
  1 25  1  0
  1 26  1  0
  2 27  1  0
  3 28  1  0
  9 29  1  0
 10 30  1  0
 11 31  1  0
 12 32  1  0
 13 33  1  0
 16 34  1  0
 17 35  1  0
 20 36  1  0
 21 37  1  0
 22 38  1  0
 24 39  1  0
M  ISO  8  25   8  26   8  27  14  28  14  29  14  30  14  31  14  32  14
M  ISO  7  33  14  34  14  35  14  36  14  37  14  38  14  39  14
M  END
>  <minimizedAffinity>  (1) 
-6.65442228

>  <minimizedRMSD>  (1) 
0.447579026

$$$$
