
     RDKit          3D

 38 41  0  0  0  0  0  0  0  0999 V2000
   45.5780   33.1300   46.5180 C   0  0  0  0  0  0  0  0  0  0  0  0
   44.4010   36.2120   44.8090 C   0  0  0  0  0  0  0  0  0  0  0  0
   45.0730   36.1030   43.5730 C   0  0  0  0  0  0  0  0  0  0  0  0
   45.8990   34.9980   43.3600 C   0  0  0  0  0  0  0  0  0  0  0  0
   46.0360   34.0530   44.3490 N   0  0  0  0  0  0  0  0  0  0  0  0
   45.3650   34.2040   45.5230 C   0  0  0  0  0  0  0  0  0  0  0  0
   44.5680   35.2680   45.7320 N   0  0  0  0  0  0  0  0  0  0  0  0
   46.6500   34.7600   42.1350 C   0  0  0  0  0  0  0  0  0  0  0  0
   47.8880   35.3130   41.8980 C   0  0  0  0  0  0  0  0  0  0  0  0
   48.6390   35.1190   40.7540 C   0  0  0  0  0  0  0  0  0  0  0  0
   48.1250   34.3110   39.7590 C   0  0  0  0  0  0  0  0  0  0  0  0
   46.8890   33.7650   40.0090 C   0  0  0  0  0  0  0  0  0  0  0  0
   46.1960   33.9830   41.1360 N   0  0  0  0  0  0  0  0  0  0  0  0
   46.7920   31.9830   45.8400 S   0  0  0  0  0  0  0  0  0  0  0  0
   47.7390   31.2300   47.1440 C   0  0  0  0  0  0  0  0  0  0  0  0
   47.9780   31.9800   48.2720 C   0  0  0  0  0  0  0  0  0  0  0  0
   48.7010   31.4100   49.2870 C   0  0  0  0  0  0  0  0  0  0  0  0
   49.1980   30.1040   49.2120 C   0  0  0  0  0  0  0  0  0  0  0  0
   49.8980   29.5820   50.2350 N   0  0  0  0  0  0  0  0  0  0  0  0
   50.3780   28.3280   50.1780 C   0  0  0  0  0  0  0  0  0  0  0  0
   50.1420   27.5730   49.0500 C   0  0  0  0  0  0  0  0  0  0  0  0
   49.4180   28.1100   47.9920 C   0  0  0  0  0  0  0  0  0  0  0  0
   48.9120   29.4120   48.0340 C   0  0  0  0  0  0  0  0  0  0  0  0
   48.1940   29.9460   46.9990 C   0  0  0  0  0  0  0  0  0  0  0  0
   45.9539   33.5601   47.4581 H   0  0  0  0  0  0  0  0  0  0  0  0
   44.6326   32.6085   46.7286 H   0  0  0  0  0  0  0  0  0  0  0  0
   43.7437   37.0712   45.0082 H   0  0  0  0  0  0  0  0  0  0  0  0
   44.9488   36.8710   42.7953 H   0  0  0  0  0  0  0  0  0  0  0  0
   48.3127   35.9597   42.6799 H   0  0  0  0  0  0  0  0  0  0  0  0
   49.6230   35.5970   40.6388 H   0  0  0  0  0  0  0  0  0  0  0  0
   48.6712   34.1165   38.8242 H   0  0  0  0  0  0  0  0  0  0  0  0
   46.4438   33.1135   39.2427 H   0  0  0  0  0  0  0  0  0  0  0  0
   47.5991   33.0092   48.3570 H   0  0  0  0  0  0  0  0  0  0  0  0
   48.8979   32.0006   50.1939 H   0  0  0  0  0  0  0  0  0  0  0  0
   50.9507   27.9107   51.0193 H   0  0  0  0  0  0  0  0  0  0  0  0
   50.5268   26.5445   48.9866 H   0  0  0  0  0  0  0  0  0  0  0  0
   49.2386   27.4941   47.0984 H   0  0  0  0  0  0  0  0  0  0  0  0
   47.9901   29.3670   46.0862 H   0  0  0  0  0  0  0  0  0  0  0  0
  2  7  2  0
  3  2  1  0
  4  3  2  0
  4  5  1  0
  5  6  2  0
  6  7  1  0
  6  1  1  0
  8  4  1  0
  9  8  2  0
 10  9  1  0
 11 12  1  0
 11 10  2  0
 12 13  2  0
 13  8  1  0
 14  1  1  0
 14 15  1  0
 15 16  2  0
 16 17  1  0
 18 17  2  0
 18 19  1  0
 20 19  2  0
 21 20  1  0
 22 23  1  0
 22 21  2  0
 23 18  1  0
 24 15  1  0
 24 23  2  0
  1 25  1  0
  1 26  1  0
  2 27  1  0
  3 28  1  0
  9 29  1  0
 10 30  1  0
 11 31  1  0
 12 32  1  0
 16 33  1  0
 17 34  1  0
 20 35  1  0
 21 36  1  0
 22 37  1  0
 24 38  1  0
M  ISO  8  25   8  26   8  27  14  28  14  29  14  30  14  31  14  32  14
M  ISO  6  33  14  34  14  35  14  36  14  37  14  38  14
M  END
>  <minimizedAffinity>  (1) 
-6.3967247

>  <minimizedRMSD>  (1) 
0.511667073

$$$$
