
     RDKit          3D

 30 32  0  0  0  0  0  0  0  0999 V2000
   47.5900   31.1110   47.2960 C   0  0  0  0  0  0  0  0  0  0  0  0
   47.9170   31.9540   48.3310 C   0  0  0  0  0  0  0  0  0  0  0  0
   48.7230   31.4670   49.3410 C   0  0  0  0  0  0  0  0  0  0  0  0
   49.2010   30.1540   49.3280 C   0  0  0  0  0  0  0  0  0  0  0  0
   49.9830   29.7150   50.3290 N   0  0  0  0  0  0  0  0  0  0  0  0
   50.4530   28.4500   50.3300 C   0  0  0  0  0  0  0  0  0  0  0  0
   50.1350   27.6090   49.3120 C   0  0  0  0  0  0  0  0  0  0  0  0
   49.3320   28.0590   48.2840 C   0  0  0  0  0  0  0  0  0  0  0  0
   48.8260   29.3700   48.2530 C   0  0  0  0  0  0  0  0  0  0  0  0
   48.0250   29.8120   47.2220 C   0  0  0  0  0  0  0  0  0  0  0  0
   46.5510   31.7680   46.0110 S   0  0  0  0  0  0  0  0  0  0  0  0
   45.5970   33.1800   46.6020 C   0  0  0  0  0  0  0  0  0  0  0  0
   44.5640   36.0450   44.4670 C   0  0  0  0  0  0  0  0  0  0  0  0
   45.3280   35.7990   43.3150 C   0  0  0  0  0  0  0  0  0  0  0  0
   46.1780   34.6720   43.2780 C   0  0  0  0  0  0  0  0  0  0  0  0
   46.2370   33.8470   44.3650 N   0  0  0  0  0  0  0  0  0  0  0  0
   45.4740   34.1290   45.4620 C   0  0  0  0  0  0  0  0  0  0  0  0
   44.6530   35.2080   45.5110 N   0  0  0  0  0  0  0  0  0  0  0  0
   46.9140   34.4520   42.1460 O   0  0  0  0  0  0  0  0  0  0  0  0
   47.5464   32.9894   48.3542 H   0  0  0  0  0  0  0  0  0  0  0  0
   48.9954   32.1289   50.1763 H   0  0  0  0  0  0  0  0  0  0  0  0
   51.0926   28.1006   51.1539 H   0  0  0  0  0  0  0  0  0  0  0  0
   50.5148   26.5767   49.3071 H   0  0  0  0  0  0  0  0  0  0  0  0
   49.0802   27.3707   47.4637 H   0  0  0  0  0  0  0  0  0  0  0  0
   47.7487   29.1567   46.3828 H   0  0  0  0  0  0  0  0  0  0  0  0
   44.5996   32.8517   46.9297 H   0  0  0  0  0  0  0  0  0  0  0  0
   46.0932   33.6582   47.4594 H   0  0  0  0  0  0  0  0  0  0  0  0
   43.8969   36.9184   44.5129 H   0  0  0  0  0  0  0  0  0  0  0  0
   45.2651   36.4767   42.4508 H   0  0  0  0  0  0  0  0  0  0  0  0
   47.5182   33.6695   42.0927 H   0  0  0  0  0  0  0  0  0  0  0  0
  1  2  2  0
  2  3  1  0
  4  3  2  0
  4  5  1  0
  5  6  2  0
  7  6  1  0
  8  7  2  0
  9  8  1  0
  9  4  1  0
 10  1  1  0
 10  9  2  0
 11 12  1  0
 11  1  1  0
 13 18  2  0
 14 13  1  0
 15 14  2  0
 15 16  1  0
 16 17  2  0
 17 18  1  0
 17 12  1  0
 19 15  1  0
  2 20  1  0
  3 21  1  0
  6 22  1  0
  7 23  1  0
  8 24  1  0
 10 25  1  0
 12 26  1  0
 12 27  1  0
 13 28  1  0
 14 29  1  0
 19 30  1  0
M  ISO  8  20  14  21  14  22  14  23  14  24  14  25  14  26   8  27   8
M  ISO  3  28  14  29  14  30   3
M  END
>  <minimizedAffinity>  (1) 
-5.1312747

>  <minimizedRMSD>  (1) 
0.0693832114

$$$$
