
     RDKit          3D

 24 26  0  0  0  0  0  0  0  0999 V2000
   47.0570   32.0280   45.6620 C   0  0  0  0  0  0  0  0  0  0  0  0
   46.1180   33.0300   45.8160 C   0  0  0  0  0  0  0  0  0  0  0  0
   45.3410   33.1060   46.9600 C   0  0  0  0  0  0  0  0  0  0  0  0
   45.5150   32.1610   47.9570 C   0  0  0  0  0  0  0  0  0  0  0  0
   44.8850   32.0420   49.1310 N   0  0  0  0  0  0  0  0  0  0  0  0
   45.4020   30.9800   49.7350 N   0  0  0  0  0  0  0  0  0  0  0  0
   46.3580   30.4330   48.9400 C   0  0  0  0  0  0  0  0  0  0  0  0
   46.4620   31.1720   47.7750 C   0  0  0  0  0  0  0  0  0  0  0  0
   47.2500   31.0710   46.6450 C   0  0  0  0  0  0  0  0  0  0  0  0
   44.7930   35.8610   43.8910 C   0  0  0  0  0  0  0  0  0  0  0  0
   45.6210   35.8890   42.7490 C   0  0  0  0  0  0  0  0  0  0  0  0
   46.6350   34.9130   42.6690 C   0  0  0  0  0  0  0  0  0  0  0  0
   46.7580   34.0170   43.6730 N   0  0  0  0  0  0  0  0  0  0  0  0
   45.9440   34.0200   44.7560 C   0  0  0  0  0  0  0  0  0  0  0  0
   44.9700   34.9440   44.8510 N   0  0  0  0  0  0  0  0  0  0  0  0
   47.7290   34.8760   41.2550 S   0  0  0  0  0  0  0  0  0  0  0  0
   47.6613   31.9896   44.7437 H   0  0  0  0  0  0  0  0  0  0  0  0
   44.5954   33.9066   47.0750 H   0  0  0  0  0  0  0  0  0  0  0  0
   44.1425   32.6559   49.4954 H   0  0  0  0  0  0  0  0  0  0  0  0
   46.9556   29.5424   49.1841 H   0  0  0  0  0  0  0  0  0  0  0  0
   47.9947   30.2695   46.5311 H   0  0  0  0  0  0  0  0  0  0  0  0
   43.9889   36.6045   43.9946 H   0  0  0  0  0  0  0  0  0  0  0  0
   45.4815   36.6389   41.9564 H   0  0  0  0  0  0  0  0  0  0  0  0
   49.0292   34.8320   41.6846 H   0  0  0  0  0  0  0  0  0  0  0  0
  1  2  2  0
  1  9  1  0
  2  3  1  0
  3  4  2  0
  4  5  1  0
  5  6  1  0
  7  6  2  0
  8  4  1  0
  8  7  1  0
  9  8  2  0
 10 15  2  0
 11 10  1  0
 12 11  2  0
 12 13  1  0
 13 14  2  0
 14 15  1  0
 14  2  1  0
 16 12  1  0
  1 17  1  0
  3 18  1  0
  5 19  1  0
  7 20  1  0
  9 21  1  0
 10 22  1  0
 11 23  1  0
 16 24  1  0
M  ISO  8  17  14  18  14  19   9  20  14  21  14  22  14  23  14  24  11
M  END
>  <minimizedAffinity>  (1) 
-5.07862377

>  <minimizedRMSD>  (1) 
0.83647424

$$$$
