
     RDKit          3D

 17 17  0  0  0  0  0  0  0  0999 V2000
   44.7000   35.6310   44.2500 C   0  0  0  0  0  0  0  0  0  0  0  0
   45.4990   35.6570   43.0780 C   0  0  0  0  0  0  0  0  0  0  0  0
   46.5530   34.7360   42.9960 C   0  0  0  0  0  0  0  0  0  0  0  0
   46.7580   33.8750   44.0190 N   0  0  0  0  0  0  0  0  0  0  0  0
   45.9690   33.8820   45.1270 C   0  0  0  0  0  0  0  0  0  0  0  0
   44.9490   34.7560   45.2350 N   0  0  0  0  0  0  0  0  0  0  0  0
   47.5940   34.7280   41.5350 S   0  0  0  0  0  0  0  0  0  0  0  0
   46.3680   32.9140   46.0400 O   0  0  0  0  0  0  0  0  0  0  0  0
   46.5440   32.4700   48.5900 O   0  0  0  0  0  0  0  0  0  0  0  0
   45.5250   32.6320   47.4970 P   0  0  0  0  0  0  0  0  0  0  0  0
   44.5500   33.9470   47.8940 O   0  0  0  0  0  0  0  0  0  0  0  0
   44.6560   31.1850   47.3840 O   0  0  0  0  0  0  0  0  0  0  0  0
   43.8642   36.3388   44.3521 H   0  0  0  0  0  0  0  0  0  0  0  0
   45.2995   36.3714   42.2657 H   0  0  0  0  0  0  0  0  0  0  0  0
   48.9109   34.7179   41.9126 H   0  0  0  0  0  0  0  0  0  0  0  0
   44.4900   34.0279   48.8789 H   0  0  0  0  0  0  0  0  0  0  0  0
   44.4544   30.8493   48.2933 H   0  0  0  0  0  0  0  0  0  0  0  0
  1  6  2  0
  2  1  1  0
  3  2  2  0
  3  4  1  0
  4  5  2  0
  5  6  1  0
  5  8  1  0
  7  3  1  0
  8 10  1  0
 10 11  1  0
 10  9  2  0
 12 10  1  0
  1 13  1  0
  2 14  1  0
  7 15  1  0
 11 16  1  0
 12 17  1  0
M  ISO  5  13  14  14  14  15  11  16   3  17   3
M  END
>  <minimizedAffinity>  (1) 
-4.63910341

>  <minimizedRMSD>  (1) 
1.24962997

$$$$
