
     RDKit          3D

 12 12  0  0  0  0  0  0  0  0999 V2000
   44.5500   35.8850   44.5940 C   0  0  0  0  0  0  0  0  0  0  0  0
   45.2380   35.8460   43.3590 C   0  0  0  0  0  0  0  0  0  0  0  0
   46.1770   34.8170   43.1800 C   0  0  0  0  0  0  0  0  0  0  0  0
   46.3650   33.9330   44.1890 N   0  0  0  0  0  0  0  0  0  0  0  0
   45.6900   34.0040   45.3520 C   0  0  0  0  0  0  0  0  0  0  0  0
   44.7900   34.9740   45.5480 N   0  0  0  0  0  0  0  0  0  0  0  0
   47.0910   34.6930   41.6530 S   0  0  0  0  0  0  0  0  0  0  0  0
   46.0450   32.7650   46.5980 S   0  0  0  0  0  0  0  0  0  0  0  0
   43.8063   36.6751   44.7747 H   0  0  0  0  0  0  0  0  0  0  0  0
   45.0458   36.5901   42.5719 H   0  0  0  0  0  0  0  0  0  0  0  0
   48.4205   34.5126   41.9299 H   0  0  0  0  0  0  0  0  0  0  0  0
   45.8882   33.3124   47.8440 H   0  0  0  0  0  0  0  0  0  0  0  0
  1  6  2  0
  2  1  1  0
  3  2  2  0
  3  4  1  0
  4  5  2  0
  5  6  1  0
  5  8  1  0
  7  3  1  0
  1  9  1  0
  2 10  1  0
  7 11  1  0
  8 12  1  0
M  ISO  4   9  14  10  14  11  11  12  11
M  END
>  <minimizedAffinity>  (1) 
-3.2602067

>  <minimizedRMSD>  (1) 
0.177606955

$$$$
