
     RDKit          3D

 29 31  0  0  1  0  0  0  0  0999 V2000
   46.5700   32.4210   44.9510 C   0  0  0  0  0  0  0  0  0  0  0  0
   47.2470   31.3990   44.9380 N   0  0  0  0  0  0  0  0  0  0  0  0
   47.9560   30.4220   44.7340 C   0  0  0  0  0  0  0  0  0  0  0  0
   47.7830   30.0750   46.0180 N   0  0  0  0  0  0  0  0  0  0  0  0
   47.0260   30.8270   46.8560 C   0  0  0  0  0  0  0  0  0  0  0  0
   46.9580   30.3030   48.1740 C   0  0  0  0  0  0  0  0  0  0  0  0
   46.2100   31.0180   49.0570 C   0  0  0  0  0  0  0  0  0  0  0  0
   45.5320   32.1800   48.7770 C   0  0  0  0  0  0  0  0  0  0  0  0
   45.7000   32.5560   47.4470 C   0  0  0  0  0  0  0  0  0  0  0  0
   46.4050   32.0120   46.3440 C   0  0  0  0  0  0  0  0  0  0  0  0
   44.5450   35.5270   45.2500 C   0  0  0  0  0  0  0  0  0  0  0  0
   44.2590   35.6180   43.8840 C   0  0  0  0  0  0  0  0  0  0  0  0
   44.7800   34.6340   43.0420 C   0  0  0  0  0  0  0  0  0  0  0  0
   45.5230   33.6720   43.6410 N   0  0  0  0  0  0  0  0  0  0  0  0
   45.7840   33.6050   44.9650 C   0  0  0  0  0  0  0  0  0  0  0  0
   45.2800   34.5380   45.6930 N   0  0  0  0  0  0  0  0  0  0  0  0
   44.4260   34.7380   41.3010 S   0  0  0  0  0  0  0  0  0  0  0  0
   47.4583   33.0074   45.2284 H   0  0  0  0  0  0  0  0  0  0  0  0
   47.8267   31.7150   45.7286 H   0  0  0  0  0  0  0  0  0  0  0  0
   47.5445   29.7043   44.0090 H   0  0  0  0  0  0  0  0  0  0  0  0
   48.9621   30.5272   44.3018 H   0  0  0  0  0  0  0  0  0  0  0  0
   48.2339   29.2205   46.3750 H   0  0  0  0  0  0  0  0  0  0  0  0
   47.4774   29.3773   48.4627 H   0  0  0  0  0  0  0  0  0  0  0  0
   46.1419   30.6323   50.0849 H   0  0  0  0  0  0  0  0  0  0  0  0
   44.9333   32.7411   49.5096 H   0  0  0  0  0  0  0  0  0  0  0  0
   45.1654   33.4839   47.1955 H   0  0  0  0  0  0  0  0  0  0  0  0
   44.1547   36.2820   45.9483 H   0  0  0  0  0  0  0  0  0  0  0  0
   43.6435   36.4383   43.4861 H   0  0  0  0  0  0  0  0  0  0  0  0
   43.1228   35.1209   41.1220 H   0  0  0  0  0  0  0  0  0  0  0  0
  1 15  1  0
  1 10  1  0
  2  1  1  0
  3  2  1  0
  3  4  1  0
  4  5  1  0
  5  6  2  0
  6  7  1  0
  8  7  2  0
  9  8  1  0
 10  5  1  0
 10  9  2  0
 11 16  2  0
 12 11  1  0
 13 14  1  0
 13 12  2  0
 14 15  2  0
 15 16  1  0
 17 13  1  0
  1 18  1  0
  2 19  1  0
  3 20  1  0
  3 21  1  0
  4 22  1  0
  6 23  1  0
  7 24  1  0
  8 25  1  0
  9 26  1  0
 11 27  1  0
 12 28  1  0
 17 29  1  0
M  ISO  8  18  13  19   5  20  13  21  13  23  14  24  14  25  14  26  14
M  ISO  3  27  14  28  14  29  11
M  END
>  <minimizedAffinity>  (1) 
-5.05977011

>  <minimizedRMSD>  (1) 
2.20515084

$$$$
