
     RDKit          3D

 36 39  0  0  0  0  0  0  0  0999 V2000
   44.7570   33.3600   41.0630 Cl  0  0  0  0  0  0  0  0  0  0  0  0
   46.3200   34.0950   40.9000 C   0  0  0  0  0  0  0  0  0  0  0  0
   46.8700   34.7830   41.9670 C   0  0  0  0  0  0  0  0  0  0  0  0
   48.1220   35.3920   41.8880 C   0  0  0  0  0  0  0  0  0  0  0  0
   48.7680   35.2600   40.6810 C   0  0  0  0  0  0  0  0  0  0  0  0
   48.2340   34.5880   39.6370 C   0  0  0  0  0  0  0  0  0  0  0  0
   46.9990   33.9910   39.7240 C   0  0  0  0  0  0  0  0  0  0  0  0
   45.5850   34.0110   45.3460 C   0  0  0  0  0  0  0  0  0  0  0  0
   44.6960   35.0750   45.5750 C   0  0  0  0  0  0  0  0  0  0  0  0
   44.5490   36.0270   44.5870 C   0  0  0  0  0  0  0  0  0  0  0  0
   45.2610   35.9050   43.4400 N   0  0  0  0  0  0  0  0  0  0  0  0
   46.1180   34.8800   43.2200 C   0  0  0  0  0  0  0  0  0  0  0  0
   46.2590   33.9540   44.1840 N   0  0  0  0  0  0  0  0  0  0  0  0
   46.5500   33.3000   38.5160 C   0  0  0  0  0  0  0  0  0  0  0  0
   47.4160   33.2480   37.4240 C   0  0  0  0  0  0  0  0  0  0  0  0
   46.4530   32.2990   36.1500 S   0  0  0  0  0  0  0  0  0  0  0  0
   45.0170   32.1490   37.3720 C   0  0  0  0  0  0  0  0  0  0  0  0
   45.4270   32.6950   38.2680 N   0  0  0  0  0  0  0  0  0  0  0  0
   43.7450   31.4330   37.0150 C   0  0  0  0  0  0  0  0  0  0  0  0
   43.8050   30.6970   35.8500 C   0  0  0  0  0  0  0  0  0  0  0  0
   42.6340   30.0430   35.5300 C   0  0  0  0  0  0  0  0  0  0  0  0
   41.5070   30.1280   36.3210 C   0  0  0  0  0  0  0  0  0  0  0  0
   41.4980   30.8790   37.4790 C   0  0  0  0  0  0  0  0  0  0  0  0
   42.6650   31.5610   37.8440 C   0  0  0  0  0  0  0  0  0  0  0  0
   48.5629   35.9406   42.7334 H   0  0  0  0  0  0  0  0  0  0  0  0
   49.7598   35.7202   40.5604 H   0  0  0  0  0  0  0  0  0  0  0  0
   48.8004   34.5173   38.6967 H   0  0  0  0  0  0  0  0  0  0  0  0
   45.7280   33.2325   46.1099 H   0  0  0  0  0  0  0  0  0  0  0  0
   44.1323   35.1470   46.5168 H   0  0  0  0  0  0  0  0  0  0  0  0
   43.8623   36.8746   44.7285 H   0  0  0  0  0  0  0  0  0  0  0  0
   48.4286   33.6689   37.3376 H   0  0  0  0  0  0  0  0  0  0  0  0
   44.7107   30.6368   35.2286 H   0  0  0  0  0  0  0  0  0  0  0  0
   42.5973   29.4340   34.6147 H   0  0  0  0  0  0  0  0  0  0  0  0
   40.5972   29.5864   36.0228 H   0  0  0  0  0  0  0  0  0  0  0  0
   40.5933   30.9404   38.1018 H   0  0  0  0  0  0  0  0  0  0  0  0
   42.7111   32.1727   38.7571 H   0  0  0  0  0  0  0  0  0  0  0  0
  2  1  1  0
  2  3  2  0
  3 12  1  0
  4  3  1  0
  5  4  2  0
  6  7  2  0
  6  5  1  0
  7  2  1  0
  8  9  2  0
 10  9  1  0
 11 10  2  0
 12 11  1  0
 12 13  2  0
 13  8  1  0
 14  7  1  0
 15 14  2  0
 16 17  1  0
 16 15  1  0
 17 18  2  0
 18 14  1  0
 19 17  1  0
 19 24  1  0
 20 19  2  0
 21 20  1  0
 21 22  2  0
 22 23  1  0
 23 24  2  0
  4 25  1  0
  5 26  1  0
  6 27  1  0
  8 28  1  0
  9 29  1  0
 10 30  1  0
 15 31  1  0
 20 32  1  0
 21 33  1  0
 22 34  1  0
 23 35  1  0
 24 36  1  0
M  ISO  8  25  14  26  14  27  14  28  14  29  14  30  14  31  14  32  14
M  ISO  4  33  14  34  14  35  14  36  14
M  END
>  <minimizedAffinity>  (1) 
-6.14276409

>  <minimizedRMSD>  (1) 
1.62097907

$$$$
