
     RDKit          3D

 23 24  0  0  1  0  0  0  0  0999 V2000
   47.6230   35.2310   41.7740 C   0  0  2  0  0  0  0  0  0  0  0  0
   45.8870   34.9570   43.4790 C   0  0  0  0  0  0  0  0  0  0  0  0
   47.1020   34.5090   42.9380 C   0  0  0  0  0  0  0  0  0  0  0  0
   47.7330   33.3970   43.5530 C   0  0  0  0  0  0  0  0  0  0  0  0
   47.1100   32.8620   44.6160 N   0  0  0  0  0  0  0  0  0  0  0  0
   45.9540   33.3170   45.1020 C   0  0  0  0  0  0  0  0  0  0  0  0
   45.3320   34.3630   44.5450 N   0  0  0  0  0  0  0  0  0  0  0  0
   47.3530   34.4280   40.5560 C   0  0  0  0  0  0  0  0  0  0  0  0
   46.2620   33.6480   40.2340 C   0  0  0  0  0  0  0  0  0  0  0  0
   46.4210   33.0800   39.0090 N   0  0  0  0  0  0  0  0  0  0  0  0
   47.6260   33.5150   38.5680 C   0  0  0  0  0  0  0  0  0  0  0  0
   48.1840   34.3260   39.5000 N   0  0  0  0  0  0  0  0  0  0  0  0
   49.1220   35.3520   41.9490 C   0  0  0  0  0  0  0  0  0  0  0  0
   47.1532   36.2213   41.6817 H   0  0  0  0  0  0  0  0  0  0  0  0
   45.3780   35.8160   43.0174 H   0  0  0  0  0  0  0  0  0  0  0  0
   48.6850   32.9931   43.1780 H   0  0  0  0  0  0  0  0  0  0  0  0
   45.5040   32.8237   45.9761 H   0  0  0  0  0  0  0  0  0  0  0  0
   45.3833   33.5050   40.8801 H   0  0  0  0  0  0  0  0  0  0  0  0
   45.7656   32.4531   38.5207 H   0  0  0  0  0  0  0  0  0  0  0  0
   48.0815   33.2507   37.6022 H   0  0  0  0  0  0  0  0  0  0  0  0
   49.3655   35.3717   43.0215 H   0  0  0  0  0  0  0  0  0  0  0  0
   49.6170   34.4909   41.4763 H   0  0  0  0  0  0  0  0  0  0  0  0
   49.4725   36.2814   41.4763 H   0  0  0  0  0  0  0  0  0  0  0  0
  1 13  1  0
  1  3  1  0
  2  7  2  0
  3  2  1  0
  3  4  2  0
  4  5  1  0
  5  6  2  0
  7  6  1  0
  8  1  1  0
  9  8  2  0
 10  9  1  0
 11 10  1  0
 11 12  2  0
 12  8  1  0
  1 14  1  6
  2 15  1  0
  4 16  1  0
  6 17  1  0
  9 18  1  0
 10 19  1  0
 11 20  1  0
 13 21  1  0
 13 22  1  0
 13 23  1  0
M  ISO  8  14   8  15  14  16  14  17  14  18  14  19   9  20  14  21   8
M  ISO  2  22   8  23   8
M  END
>  <minimizedAffinity>  (1) 
-3.90612555

>  <minimizedRMSD>  (1) 
1.44033456

$$$$
