
     RDKit          3D

 35 38  0  0  0  0  0  0  0  0999 V2000
   44.6270   33.3740   41.1120 Cl  0  0  0  0  0  0  0  0  0  0  0  0
   46.1960   34.0590   40.9310 C   0  0  0  0  0  0  0  0  0  0  0  0
   46.7830   34.7320   41.9830 C   0  0  0  0  0  0  0  0  0  0  0  0
   48.0620   35.3080   41.8860 C   0  0  0  0  0  0  0  0  0  0  0  0
   48.6880   35.1590   40.6780 C   0  0  0  0  0  0  0  0  0  0  0  0
   48.1240   34.5000   39.6330 C   0  0  0  0  0  0  0  0  0  0  0  0
   46.8560   33.9370   39.7530 C   0  0  0  0  0  0  0  0  0  0  0  0
   45.5290   34.0320   45.3760 C   0  0  0  0  0  0  0  0  0  0  0  0
   44.6820   35.1090   45.6160 C   0  0  0  0  0  0  0  0  0  0  0  0
   44.5360   36.0740   44.6240 C   0  0  0  0  0  0  0  0  0  0  0  0
   45.2270   35.9250   43.4640 N   0  0  0  0  0  0  0  0  0  0  0  0
   46.0550   34.8540   43.2520 C   0  0  0  0  0  0  0  0  0  0  0  0
   46.1870   33.9320   44.2150 N   0  0  0  0  0  0  0  0  0  0  0  0
   46.3860   33.2610   38.5430 C   0  0  0  0  0  0  0  0  0  0  0  0
   47.2160   33.2050   37.4300 C   0  0  0  0  0  0  0  0  0  0  0  0
   46.2080   32.2740   36.1840 S   0  0  0  0  0  0  0  0  0  0  0  0
   44.8060   32.1300   37.4410 C   0  0  0  0  0  0  0  0  0  0  0  0
   45.2530   32.6650   38.3150 N   0  0  0  0  0  0  0  0  0  0  0  0
   43.5210   31.4340   37.1310 C   0  0  0  0  0  0  0  0  0  0  0  0
   43.5630   30.5400   36.0880 C   0  0  0  0  0  0  0  0  0  0  0  0
   42.3600   29.9140   35.8260 C   0  0  0  0  0  0  0  0  0  0  0  0
   41.2180   30.1840   36.5700 C   0  0  0  0  0  0  0  0  0  0  0  0
   41.2410   31.0920   37.6080 C   0  0  0  0  0  0  0  0  0  0  0  0
   42.4300   31.7120   37.8670 N   0  0  0  0  0  0  0  0  0  0  0  0
   48.5289   35.8433   42.7259 H   0  0  0  0  0  0  0  0  0  0  0  0
   49.6910   35.5916   40.5480 H   0  0  0  0  0  0  0  0  0  0  0  0
   48.6732   34.4102   38.6842 H   0  0  0  0  0  0  0  0  0  0  0  0
   45.6588   33.2571   46.1459 H   0  0  0  0  0  0  0  0  0  0  0  0
   44.1395   35.1960   46.5690 H   0  0  0  0  0  0  0  0  0  0  0  0
   43.8746   36.9397   44.7761 H   0  0  0  0  0  0  0  0  0  0  0  0
   48.2301   33.6155   37.3156 H   0  0  0  0  0  0  0  0  0  0  0  0
   44.4776   30.3399   35.5105 H   0  0  0  0  0  0  0  0  0  0  0  0
   42.3045   29.1823   35.0066 H   0  0  0  0  0  0  0  0  0  0  0  0
   40.2793   29.6646   36.3270 H   0  0  0  0  0  0  0  0  0  0  0  0
   40.3404   31.3075   38.2017 H   0  0  0  0  0  0  0  0  0  0  0  0
  2  1  1  0
  2  3  2  0
  3 12  1  0
  4  3  1  0
  5  4  2  0
  6  7  2  0
  6  5  1  0
  7  2  1  0
  8  9  2  0
 10  9  1  0
 11 10  2  0
 12 11  1  0
 12 13  2  0
 13  8  1  0
 14  7  1  0
 15 14  2  0
 16 15  1  0
 16 17  1  0
 17 18  2  0
 18 14  1  0
 19 17  1  0
 19 24  1  0
 20 19  2  0
 21 20  1  0
 21 22  2  0
 22 23  1  0
 23 24  2  0
  4 25  1  0
  5 26  1  0
  6 27  1  0
  8 28  1  0
  9 29  1  0
 10 30  1  0
 15 31  1  0
 20 32  1  0
 21 33  1  0
 22 34  1  0
 23 35  1  0
M  ISO  8  25  14  26  14  27  14  28  14  29  14  30  14  31  14  32  14
M  ISO  3  33  14  34  14  35  14
M  END
>  <minimizedAffinity>  (1) 
-6.03122091

>  <minimizedRMSD>  (1) 
1.56473577

$$$$
