
     RDKit          3D

 30 32  0  0  1  0  0  0  0  0999 V2000
   45.3140   34.9950   42.0950 C   0  0  2  0  0  0  0  0  0  0  0  0
   44.6620   35.6520   44.3790 C   0  0  0  0  0  0  0  0  0  0  0  0
   45.2250   34.6690   43.5310 C   0  0  0  0  0  0  0  0  0  0  0  0
   45.6680   33.4730   44.1230 C   0  0  0  0  0  0  0  0  0  0  0  0
   45.5130   33.3730   45.4550 N   0  0  0  0  0  0  0  0  0  0  0  0
   44.9820   34.3140   46.2190 C   0  0  0  0  0  0  0  0  0  0  0  0
   44.5450   35.4740   45.6930 N   0  0  0  0  0  0  0  0  0  0  0  0
   43.9880   34.6780   41.4810 C   0  0  0  0  0  0  0  0  0  0  0  0
   42.9520   35.5110   41.1340 C   0  0  0  0  0  0  0  0  0  0  0  0
   41.9460   34.7810   40.5980 N   0  0  0  0  0  0  0  0  0  0  0  0
   42.3570   33.4810   40.6110 C   0  0  0  0  0  0  0  0  0  0  0  0
   43.5900   33.4300   41.1460 N   0  0  0  0  0  0  0  0  0  0  0  0
   46.3690   34.1250   41.5010 C   0  0  0  0  0  0  0  0  0  0  0  0
   47.7250   34.6810   41.7480 C   0  0  0  0  0  0  0  0  0  0  0  0
   48.6810   33.7430   42.1530 C   0  0  0  0  0  0  0  0  0  0  0  0
   49.8970   34.3790   42.3500 C   0  0  0  0  0  0  0  0  0  0  0  0
   49.6010   35.6880   42.0480 C   0  0  0  0  0  0  0  0  0  0  0  0
   48.3570   35.8180   41.7100 O   0  0  0  0  0  0  0  0  0  0  0  0
   45.5632   36.0527   41.9240 H   0  0  0  0  0  0  0  0  0  0  0  0
   44.3090   36.5955   43.9373 H   0  0  0  0  0  0  0  0  0  0  0  0
   46.1169   32.6633   43.5289 H   0  0  0  0  0  0  0  0  0  0  0  0
   44.8961   34.1457   47.3026 H   0  0  0  0  0  0  0  0  0  0  0  0
   42.9417   36.6024   41.2706 H   0  0  0  0  0  0  0  0  0  0  0  0
   41.0453   35.1381   40.2484 H   0  0  0  0  0  0  0  0  0  0  0  0
   41.7782   32.6198   40.2458 H   0  0  0  0  0  0  0  0  0  0  0  0
   46.2038   34.0503   40.4160 H   0  0  0  0  0  0  0  0  0  0  0  0
   46.3081   33.1325   41.9714 H   0  0  0  0  0  0  0  0  0  0  0  0
   48.4964   32.6677   42.2933 H   0  0  0  0  0  0  0  0  0  0  0  0
   50.8569   33.9459   42.6678 H   0  0  0  0  0  0  0  0  0  0  0  0
   50.3249   36.5152   42.0882 H   0  0  0  0  0  0  0  0  0  0  0  0
  1  3  1  0
  2  7  2  0
  3  4  2  0
  3  2  1  0
  4  5  1  0
  5  6  2  0
  7  6  1  0
  8  1  1  0
  9  8  2  0
 10 11  1  0
 10  9  1  0
 11 12  2  0
 12  8  1  0
 13 14  1  0
 13  1  1  0
 14 15  2  0
 15 16  1  0
 17 16  2  0
 18 14  1  0
 18 17  1  0
  1 19  1  1
  2 20  1  0
  4 21  1  0
  6 22  1  0
  9 23  1  0
 10 24  1  0
 11 25  1  0
 13 26  1  0
 13 27  1  0
 15 28  1  0
 16 29  1  0
 17 30  1  0
M  ISO  8  19   8  20  14  21  14  22  14  23  14  24   9  25  14  26   8
M  ISO  4  27   8  28  14  29  14  30  14
M  END
>  <minimizedAffinity>  (1) 
-4.8082304

>  <minimizedRMSD>  (1) 
3.39566422

$$$$
