
     RDKit          3D

 33 36  0  0  0  0  0  0  0  0999 V2000
   44.8010   33.2670   41.1570 Cl  0  0  0  0  0  0  0  0  0  0  0  0
   46.3350   34.0540   40.9910 C   0  0  0  0  0  0  0  0  0  0  0  0
   46.8660   34.7560   42.0450 C   0  0  0  0  0  0  0  0  0  0  0  0
   48.0980   35.4090   41.9660 C   0  0  0  0  0  0  0  0  0  0  0  0
   48.7450   35.2990   40.7510 C   0  0  0  0  0  0  0  0  0  0  0  0
   48.2290   34.6090   39.7080 C   0  0  0  0  0  0  0  0  0  0  0  0
   47.0100   33.9690   39.8030 C   0  0  0  0  0  0  0  0  0  0  0  0
   45.6190   33.9620   45.4320 C   0  0  0  0  0  0  0  0  0  0  0  0
   44.7100   34.9950   45.6660 C   0  0  0  0  0  0  0  0  0  0  0  0
   44.5290   35.9450   44.6820 C   0  0  0  0  0  0  0  0  0  0  0  0
   45.2390   35.8380   43.5300 N   0  0  0  0  0  0  0  0  0  0  0  0
   46.1240   34.8310   43.3030 C   0  0  0  0  0  0  0  0  0  0  0  0
   46.2880   33.9180   44.2660 N   0  0  0  0  0  0  0  0  0  0  0  0
   46.5850   33.2650   38.5960 C   0  0  0  0  0  0  0  0  0  0  0  0
   47.4820   33.1530   37.5330 C   0  0  0  0  0  0  0  0  0  0  0  0
   46.5040   32.2040   36.2660 S   0  0  0  0  0  0  0  0  0  0  0  0
   45.0330   32.1420   37.4490 C   0  0  0  0  0  0  0  0  0  0  0  0
   45.4360   32.6940   38.3360 N   0  0  0  0  0  0  0  0  0  0  0  0
   43.7630   31.4820   37.0990 C   0  0  0  0  0  0  0  0  0  0  0  0
   43.4850   30.5370   36.1330 C   0  0  0  0  0  0  0  0  0  0  0  0
   42.1270   30.2720   36.2480 C   0  0  0  0  0  0  0  0  0  0  0  0
   41.6070   31.0220   37.2370 N   0  0  0  0  0  0  0  0  0  0  0  0
   42.5950   31.7380   37.7330 N   0  0  0  0  0  0  0  0  0  0  0  0
   48.5226   35.9707   42.8111 H   0  0  0  0  0  0  0  0  0  0  0  0
   49.7200   35.7927   40.6261 H   0  0  0  0  0  0  0  0  0  0  0  0
   48.7927   34.5570   38.7648 H   0  0  0  0  0  0  0  0  0  0  0  0
   45.7872   33.1889   46.1962 H   0  0  0  0  0  0  0  0  0  0  0  0
   44.1515   35.0503   46.6120 H   0  0  0  0  0  0  0  0  0  0  0  0
   43.8217   36.7746   44.8284 H   0  0  0  0  0  0  0  0  0  0  0  0
   48.5122   33.5319   37.4617 H   0  0  0  0  0  0  0  0  0  0  0  0
   44.1919   30.0873   35.4203 H   0  0  0  0  0  0  0  0  0  0  0  0
   41.5637   29.5597   35.6272 H   0  0  0  0  0  0  0  0  0  0  0  0
   40.6247   31.0338   37.5467 H   0  0  0  0  0  0  0  0  0  0  0  0
  2  1  1  0
  2  3  2  0
  3 12  1  0
  4  3  1  0
  5  4  2  0
  6  7  2  0
  6  5  1  0
  7  2  1  0
  8  9  2  0
 10  9  1  0
 11 10  2  0
 12 11  1  0
 12 13  2  0
 13  8  1  0
 14  7  1  0
 15 14  2  0
 16 17  1  0
 16 15  1  0
 17 18  2  0
 18 14  1  0
 19 17  1  0
 19 23  2  0
 20 21  2  0
 20 19  1  0
 21 22  1  0
 22 23  1  0
  4 24  1  0
  5 25  1  0
  6 26  1  0
  8 27  1  0
  9 28  1  0
 10 29  1  0
 15 30  1  0
 20 31  1  0
 21 32  1  0
 22 33  1  0
M  ISO  8  24  14  25  14  26  14  27  14  28  14  29  14  30  14  31  14
M  ISO  2  32  14  33   9
M  END
>  <minimizedAffinity>  (1) 
-5.89393377

>  <minimizedRMSD>  (1) 
1.39754462

$$$$
