
     RDKit          3D

 24 25  0  0  1  0  0  0  0  0999 V2000
   44.9810   35.4270   44.1300 C   0  0  0  0  0  0  0  0  0  0  0  0
   45.9680   35.0650   43.1970 C   0  0  0  0  0  0  0  0  0  0  0  0
   46.8480   34.0360   43.5580 C   0  0  0  0  0  0  0  0  0  0  0  0
   46.7090   33.4410   44.7790 N   0  0  0  0  0  0  0  0  0  0  0  0
   45.7440   33.8260   45.6400 C   0  0  0  0  0  0  0  0  0  0  0  0
   44.8940   34.8010   45.3220 N   0  0  0  0  0  0  0  0  0  0  0  0
   49.2210   34.3160   42.8100 C   0  0  1  0  0  0  0  0  0  0  0  0
   47.9270   33.5320   42.7200 C   0  0  1  0  0  0  0  0  0  0  0  0
   48.3700   32.2780   43.1250 O   0  0  0  0  0  0  0  0  0  0  0  0
   49.5350   32.0240   42.4290 C   0  0  0  0  0  0  0  0  0  0  0  0
   50.1420   33.3510   42.0560 C   0  0  2  0  0  0  0  0  0  0  0  0
   49.1660   35.5470   42.1800 O   0  0  0  0  0  0  0  0  0  0  0  0
   51.4560   33.4820   42.4580 O   0  0  0  0  0  0  0  0  0  0  0  0
   44.1250   36.4290   43.7770 O   0  0  0  0  0  0  0  0  0  0  0  0
   46.0465   35.5692   42.2225 H   0  0  0  0  0  0  0  0  0  0  0  0
   45.6582   33.3282   46.6172 H   0  0  0  0  0  0  0  0  0  0  0  0
   49.5190   34.5784   43.8358 H   0  0  0  0  0  0  0  0  0  0  0  0
   47.4628   33.5735   41.7236 H   0  0  0  0  0  0  0  0  0  0  0  0
   50.2336   31.4567   43.0616 H   0  0  0  0  0  0  0  0  0  0  0  0
   49.3245   31.4289   41.5281 H   0  0  0  0  0  0  0  0  0  0  0  0
   50.1969   33.5158   40.9698 H   0  0  0  0  0  0  0  0  0  0  0  0
   49.1339   36.2650   42.8608 H   0  0  0  0  0  0  0  0  0  0  0  0
   51.4996   33.4864   43.4470 H   0  0  0  0  0  0  0  0  0  0  0  0
   44.2148   36.8689   42.8946 H   0  0  0  0  0  0  0  0  0  0  0  0
  1  6  2  0
  2  3  2  0
  2  1  1  0
  3  4  1  0
  4  5  2  0
  6  5  1  0
  7 12  1  0
  8  7  1  0
  8  9  1  0
  8  3  1  0
 10  9  1  0
 11 10  1  0
 11 13  1  0
 11  7  1  0
 14  1  1  0
  2 15  1  0
  5 16  1  0
  7 17  1  1
  8 18  1  6
 10 19  1  0
 10 20  1  0
 11 21  1  6
 12 22  1  0
 13 23  1  0
 14 24  1  0
M  ISO  8  15  14  16  14  17  13  18  13  19  13  20  13  21  13  22   3
M  ISO  2  23   3  24   3
M  END
>  <minimizedAffinity>  (1) 
-5.01254606

>  <minimizedRMSD>  (1) 
0.749211609

$$$$
