
     RDKit          3D

 23 24  0  0  1  0  0  0  0  0999 V2000
   41.5520   35.3150   38.9690 C   0  0  0  0  0  0  0  0  0  0  0  0
   42.7260   34.9060   39.6340 C   0  0  0  0  0  0  0  0  0  0  0  0
   42.7190   35.0010   41.0360 C   0  0  0  0  0  0  0  0  0  0  0  0
   41.6070   35.4700   41.6580 N   0  0  0  0  0  0  0  0  0  0  0  0
   40.5130   35.8470   40.9750 C   0  0  0  0  0  0  0  0  0  0  0  0
   40.4770   35.7730   39.6460 N   0  0  0  0  0  0  0  0  0  0  0  0
   44.3940   35.6970   42.7420 C   0  0  2  0  0  0  0  0  0  0  0  0
   43.8900   34.6020   41.8310 C   0  0  2  0  0  0  0  0  0  0  0  0
   45.1510   34.3910   41.0050 C   0  0  0  0  0  0  0  0  0  0  0  0
   46.1720   34.4020   41.9370 O   0  0  0  0  0  0  0  0  0  0  0  0
   45.8000   35.1700   43.0170 C   0  0  0  0  0  0  0  0  0  0  0  0
   43.6240   35.8150   43.8800 O   0  0  0  0  0  0  0  0  0  0  0  0
   41.5440   35.2280   37.6080 O   0  0  0  0  0  0  0  0  0  0  0  0
   43.6020   34.5319   39.0839 H   0  0  0  0  0  0  0  0  0  0  0  0
   39.6350   36.2220   41.5213 H   0  0  0  0  0  0  0  0  0  0  0  0
   44.3639   36.7148   42.3259 H   0  0  0  0  0  0  0  0  0  0  0  0
   43.5064   33.7026   42.3349 H   0  0  0  0  0  0  0  0  0  0  0  0
   45.1149   33.4266   40.4771 H   0  0  0  0  0  0  0  0  0  0  0  0
   45.2802   35.1599   40.2290 H   0  0  0  0  0  0  0  0  0  0  0  0
   46.4991   36.0105   43.1389 H   0  0  0  0  0  0  0  0  0  0  0  0
   45.8165   34.5734   43.9410 H   0  0  0  0  0  0  0  0  0  0  0  0
   44.2011   35.7266   44.6795 H   0  0  0  0  0  0  0  0  0  0  0  0
   40.7410   35.5042   37.0990 H   0  0  0  0  0  0  0  0  0  0  0  0
  1  2  2  0
  1  6  1  0
  2  3  1  0
  3  4  2  0
  5  4  1  0
  6  5  2  0
  7 11  1  0
  7 12  1  0
  8  3  1  0
  8  7  1  0
  9  8  1  0
  9 10  1  0
 10 11  1  0
 13  1  1  0
  2 14  1  0
  5 15  1  0
  7 16  1  6
  8 17  1  1
  9 18  1  0
  9 19  1  0
 11 20  1  0
 11 21  1  0
 12 22  1  0
 13 23  1  0
M  ISO  8  14  14  15  14  16  13  17  13  18  13  19  13  20  13  21  13
M  ISO  2  22   3  23   3
M  END
>  <minimizedAffinity>  (1) 
-4.73547792

>  <minimizedRMSD>  (1) 
5.61575985

$$$$
