
     RDKit          3D

 19 20  0  0  0  0  0  0  0  0999 V2000
   45.1680   35.6790   43.3830 C   0  0  0  0  0  0  0  0  0  0  0  0
   46.3620   35.1740   42.8370 C   0  0  0  0  0  0  0  0  0  0  0  0
   47.0220   34.1670   43.5510 C   0  0  0  0  0  0  0  0  0  0  0  0
   46.4900   33.7350   44.7110 N   0  0  0  0  0  0  0  0  0  0  0  0
   45.3450   34.2410   45.2030 C   0  0  0  0  0  0  0  0  0  0  0  0
   44.6900   35.2000   44.5500 N   0  0  0  0  0  0  0  0  0  0  0  0
   48.2580   33.6130   43.0300 C   0  0  0  0  0  0  0  0  0  0  0  0
   49.3260   34.4590   42.8150 C   0  0  0  0  0  0  0  0  0  0  0  0
   50.4840   33.8810   42.3160 C   0  0  0  0  0  0  0  0  0  0  0  0
   50.5340   32.5530   42.0650 N   0  0  0  0  0  0  0  0  0  0  0  0
   49.4680   31.7550   42.2870 C   0  0  0  0  0  0  0  0  0  0  0  0
   48.3130   32.2890   42.7770 N   0  0  0  0  0  0  0  0  0  0  0  0
   44.5240   36.6590   42.6870 O   0  0  0  0  0  0  0  0  0  0  0  0
   46.7615   35.5556   41.8858 H   0  0  0  0  0  0  0  0  0  0  0  0
   44.9454   33.8592   46.1541 H   0  0  0  0  0  0  0  0  0  0  0  0
   49.2627   35.5363   43.0282 H   0  0  0  0  0  0  0  0  0  0  0  0
   51.3677   34.5070   42.1231 H   0  0  0  0  0  0  0  0  0  0  0  0
   49.5309   30.6778   42.0734 H   0  0  0  0  0  0  0  0  0  0  0  0
   44.9010   36.9891   41.8332 H   0  0  0  0  0  0  0  0  0  0  0  0
  1  6  2  0
  2  1  1  0
  2  3  2  0
  3  4  1  0
  4  5  2  0
  6  5  1  0
  7  3  1  0
  8  7  2  0
  9  8  1  0
 10 11  1  0
 10  9  2  0
 11 12  2  0
 12  7  1  0
 13  1  1  0
  2 14  1  0
  5 15  1  0
  8 16  1  0
  9 17  1  0
 11 18  1  0
 13 19  1  0
M  ISO  6  14  14  15  14  16  14  17  14  18  14  19   3
M  END
>  <minimizedAffinity>  (1) 
-4.31132221

>  <minimizedRMSD>  (1) 
0.874722421

$$$$
