
     RDKit          3D

 18 18  0  0  0  0  0  0  0  0999 V2000
   45.1040   35.7230   43.5620 C   0  0  0  0  0  0  0  0  0  0  0  0
   46.2530   35.1840   42.9600 C   0  0  0  0  0  0  0  0  0  0  0  0
   46.9140   34.1440   43.6360 C   0  0  0  0  0  0  0  0  0  0  0  0
   46.4180   33.7190   44.8180 N   0  0  0  0  0  0  0  0  0  0  0  0
   45.3080   34.2610   45.3700 C   0  0  0  0  0  0  0  0  0  0  0  0
   44.6630   35.2500   44.7460 N   0  0  0  0  0  0  0  0  0  0  0  0
   44.4560   36.7300   42.9160 O   0  0  0  0  0  0  0  0  0  0  0  0
   48.1150   33.5350   43.0710 C   0  0  0  0  0  0  0  0  0  0  0  0
   49.1750   34.2840   42.8540 C   0  0  0  0  0  0  0  0  0  0  0  0
   50.4090   33.6860   42.2810 C   0  0  0  0  0  0  0  0  0  0  0  0
   46.6219   35.5619   41.9951 H   0  0  0  0  0  0  0  0  0  0  0  0
   44.9360   33.8862   46.3349 H   0  0  0  0  0  0  0  0  0  0  0  0
   44.7974   37.0616   42.0479 H   0  0  0  0  0  0  0  0  0  0  0  0
   48.1334   32.4620   42.8295 H   0  0  0  0  0  0  0  0  0  0  0  0
   49.1476   35.3564   43.0975 H   0  0  0  0  0  0  0  0  0  0  0  0
   51.0733   33.3641   43.0965 H   0  0  0  0  0  0  0  0  0  0  0  0
   50.1419   32.8174   41.6612 H   0  0  0  0  0  0  0  0  0  0  0  0
   50.9252   34.4339   41.6612 H   0  0  0  0  0  0  0  0  0  0  0  0
  1  6  2  0
  2  1  1  0
  2  3  2  0
  3  4  1  0
  4  5  2  0
  6  5  1  0
  7  1  1  0
  8  3  1  0
  9  8  2  0
 10  9  1  0
  2 11  1  0
  5 12  1  0
  7 13  1  0
  8 14  1  0
  9 15  1  0
 10 16  1  0
 10 17  1  0
 10 18  1  0
M  ISO  6  11  14  12  14  13   3  16   8  17   8  18   8
M  END
>  <minimizedAffinity>  (1) 
-3.91810751

>  <minimizedRMSD>  (1) 
0.637443483

$$$$
