
     RDKit          3D

 13 13  0  0  0  0  0  0  0  0999 V2000
   45.0470   35.9360   43.6450 C   0  0  0  0  0  0  0  0  0  0  0  0
   46.0680   35.1230   43.1030 C   0  0  0  0  0  0  0  0  0  0  0  0
   46.5130   34.0590   43.9010 C   0  0  0  0  0  0  0  0  0  0  0  0
   45.9610   33.8650   45.1150 N   0  0  0  0  0  0  0  0  0  0  0  0
   44.9930   34.6610   45.5890 C   0  0  0  0  0  0  0  0  0  0  0  0
   44.5250   35.7010   44.8670 N   0  0  0  0  0  0  0  0  0  0  0  0
   47.5580   33.2510   43.3140 C   0  0  0  0  0  0  0  0  0  0  0  0
   48.7320   33.6500   43.0540 O   0  0  0  0  0  0  0  0  0  0  0  0
   44.6030   36.9830   42.8690 O   0  0  0  0  0  0  0  0  0  0  0  0
   46.4920   35.3149   42.1063 H   0  0  0  0  0  0  0  0  0  0  0  0
   44.5716   34.4631   46.5856 H   0  0  0  0  0  0  0  0  0  0  0  0
   47.3143   32.2056   43.0737 H   0  0  0  0  0  0  0  0  0  0  0  0
   44.9986   37.1391   41.9750 H   0  0  0  0  0  0  0  0  0  0  0  0
  1  6  2  0
  2  1  1  0
  2  3  2  0
  3  4  1  0
  4  5  2  0
  6  5  1  0
  7  3  1  0
  8  7  2  0
  9  1  1  0
  2 10  1  0
  5 11  1  0
  7 12  1  0
  9 13  1  0
M  ISO  4  10  14  11  14  12   6  13   3
M  END
>  <minimizedAffinity>  (1) 
-3.38279057

>  <minimizedRMSD>  (1) 
0.677382469

$$$$
