
     RDKit          3D

 45 48  0  0  1  0  0  0  0  0999 V2000
   42.8360   34.3040   38.9540 C   0  0  1  0  0  0  0  0  0  0  0  0
   43.0360   35.1640   40.2040 C   0  0  1  0  0  0  0  0  0  0  0  0
   41.7830   35.6410   40.6340 O   0  0  0  0  0  0  0  0  0  0  0  0
   40.9090   35.9090   39.5760 C   0  0  0  0  0  0  0  0  0  0  0  0
   40.4590   34.6150   38.9140 C   0  0  2  0  0  0  0  0  0  0  0  0
   41.5330   33.5590   39.1950 C   0  0  1  0  0  0  0  0  0  0  0  0
   42.7230   35.1080   37.8210 O   0  0  0  0  0  0  0  0  0  0  0  0
   40.5230   34.8080   37.5210 O   0  0  0  0  0  0  0  0  0  0  0  0
   43.4420   34.2820   41.2140 O   0  0  0  0  0  0  0  0  0  0  0  0
   44.5880   34.3680   41.8960 C   0  0  0  0  0  0  0  0  0  0  0  0
   45.8050   34.5060   41.2340 C   0  0  0  0  0  0  0  0  0  0  0  0
   46.9700   34.5930   41.9820 C   0  0  0  0  0  0  0  0  0  0  0  0
   46.8910   34.5410   43.3570 N   0  0  0  0  0  0  0  0  0  0  0  0
   45.6980   34.4070   43.9680 C   0  0  0  0  0  0  0  0  0  0  0  0
   44.5530   34.3210   43.2500 N   0  0  0  0  0  0  0  0  0  0  0  0
   48.3120   34.7260   41.3160 C   0  0  0  0  0  0  0  0  0  0  0  0
   49.0620   36.0240   41.5160 C   0  0  0  0  0  0  0  0  0  0  0  0
   49.5090   34.6850   42.1140 C   0  0  0  0  0  0  0  0  0  0  0  0
   41.3570   32.4660   38.3780 O   0  0  0  0  0  0  0  0  0  0  0  0
   38.4750   30.3210   37.7220 N   0  0  0  0  0  0  0  0  0  0  0  0
   39.3480   31.3480   37.5730 C   0  0  0  0  0  0  0  0  0  0  0  0
   40.4260   31.4800   38.4360 C   0  0  0  0  0  0  0  0  0  0  0  0
   40.5720   30.5260   39.4490 C   0  0  0  0  0  0  0  0  0  0  0  0
   41.5510   30.6180   40.2590 O   0  0  0  0  0  0  0  0  0  0  0  0
   39.7000   29.5080   39.5910 N   0  0  0  0  0  0  0  0  0  0  0  0
   38.6780   29.4420   38.7180 C   0  0  0  0  0  0  0  0  0  0  0  0
   37.8390   28.4960   38.8220 O   0  0  0  0  0  0  0  0  0  0  0  0
   43.6832   33.6234   38.7835 H   0  0  0  0  0  0  0  0  0  0  0  0
   43.7397   35.9851   40.0023 H   0  0  0  0  0  0  0  0  0  0  0  0
   40.0282   36.4437   39.9610 H   0  0  0  0  0  0  0  0  0  0  0  0
   41.4322   36.5260   38.8307 H   0  0  0  0  0  0  0  0  0  0  0  0
   39.4585   34.3286   39.2702 H   0  0  0  0  0  0  0  0  0  0  0  0
   41.5023   33.1407   40.2119 H   0  0  0  0  0  0  0  0  0  0  0  0
   42.5907   36.0497   38.0964 H   0  0  0  0  0  0  0  0  0  0  0  0
   40.8287   35.7299   37.3293 H   0  0  0  0  0  0  0  0  0  0  0  0
   45.8421   34.5454   40.1353 H   0  0  0  0  0  0  0  0  0  0  0  0
   45.6532   34.3668   45.0664 H   0  0  0  0  0  0  0  0  0  0  0  0
   47.9746   34.1515   40.4407 H   0  0  0  0  0  0  0  0  0  0  0  0
   49.6212   36.4809   40.6862 H   0  0  0  0  0  0  0  0  0  0  0  0
   48.8297   37.0300   41.8955 H   0  0  0  0  0  0  0  0  0  0  0  0
   49.4376   34.5195   43.1991 H   0  0  0  0  0  0  0  0  0  0  0  0
   50.4383   34.0973   42.0812 H   0  0  0  0  0  0  0  0  0  0  0  0
   37.6726   30.2168   37.0847 H   0  0  0  0  0  0  0  0  0  0  0  0
   39.2007   32.0793   36.7646 H   0  0  0  0  0  0  0  0  0  0  0  0
   39.8115   28.8081   40.3384 H   0  0  0  0  0  0  0  0  0  0  0  0
  1  6  1  0
  1  2  1  0
  2  3  1  0
  2  9  1  0
  4  3  1  0
  5  6  1  0
  5  4  1  0
  7  1  1  0
  8  5  1  0
  9 10  1  0
 10 15  1  0
 11 10  2  0
 11 12  1  0
 12 13  2  0
 13 14  1  0
 15 14  2  0
 16 17  1  0
 16 12  1  0
 16 18  1  0
 17 18  1  0
 19 22  1  0
 19  6  1  0
 20 26  1  0
 21 20  1  0
 21 22  2  0
 22 23  1  0
 23 25  1  0
 23 24  2  0
 26 27  2  0
 26 25  1  0
  1 28  1  6
  2 29  1  6
  4 30  1  0
  4 31  1  0
  5 32  1  1
  6 33  1  1
  7 34  1  0
  8 35  1  0
 11 36  1  0
 14 37  1  0
 16 38  1  0
 17 39  1  0
 17 40  1  0
 18 41  1  0
 18 42  1  0
 20 43  1  0
 21 44  1  0
 25 45  1  0
M  ISO  8  28  13  29  13  30  13  31  13  32  13  33  13  34   3  35   3
M  ISO  8  36  14  37  14  38  13  39  13  40  13  41  13  42  13  43   9
M  ISO  2  44  14  45   9
M  END
>  <minimizedAffinity>  (1) 
-6.12909603

>  <minimizedRMSD>  (1) 
1.47554052

$$$$
