
     RDKit          3D

 42 45  0  0  1  0  0  0  0  0999 V2000
   42.8580   34.3680   38.9070 C   0  0  1  0  0  0  0  0  0  0  0  0
   43.0400   35.1550   40.2090 C   0  0  1  0  0  0  0  0  0  0  0  0
   41.7860   35.5930   40.6650 O   0  0  0  0  0  0  0  0  0  0  0  0
   40.8990   35.8890   39.6330 C   0  0  0  0  0  0  0  0  0  0  0  0
   40.4690   34.6220   38.9070 C   0  0  2  0  0  0  0  0  0  0  0  0
   41.5750   33.5840   39.1100 C   0  0  1  0  0  0  0  0  0  0  0  0
   42.7220   35.2340   37.8250 O   0  0  0  0  0  0  0  0  0  0  0  0
   40.5250   34.9030   37.5220 O   0  0  0  0  0  0  0  0  0  0  0  0
   43.4830   34.2270   41.1550 O   0  0  0  0  0  0  0  0  0  0  0  0
   44.6120   34.3170   41.8620 C   0  0  0  0  0  0  0  0  0  0  0  0
   45.8360   34.4730   41.2160 C   0  0  0  0  0  0  0  0  0  0  0  0
   46.9890   34.5640   41.9860 C   0  0  0  0  0  0  0  0  0  0  0  0
   46.8940   34.4980   43.3690 N   0  0  0  0  0  0  0  0  0  0  0  0
   45.6930   34.3460   43.9500 C   0  0  0  0  0  0  0  0  0  0  0  0
   44.5620   34.2570   43.2130 N   0  0  0  0  0  0  0  0  0  0  0  0
   48.3380   34.7230   41.3280 C   0  0  0  0  0  0  0  0  0  0  0  0
   49.0620   36.0320   41.5350 C   0  0  0  0  0  0  0  0  0  0  0  0
   49.5290   34.6940   42.1370 C   0  0  0  0  0  0  0  0  0  0  0  0
   41.4220   32.5270   38.2480 O   0  0  0  0  0  0  0  0  0  0  0  0
   40.3480   31.5980   38.6120 C   0  0  0  0  0  0  0  0  0  0  0  0
   39.6080   31.1460   37.6240 C   0  0  0  0  0  0  0  0  0  0  0  0
   38.5820   30.2940   37.7510 C   0  0  0  0  0  0  0  0  0  0  0  0
   38.3690   29.9170   39.0850 C   0  0  0  0  0  0  0  0  0  0  0  0
   39.7140   30.8650   40.0410 S   0  0  0  0  0  0  0  0  0  0  0  0
   43.7206   33.7206   38.6909 H   0  0  0  0  0  0  0  0  0  0  0  0
   43.7220   36.0051   40.0598 H   0  0  0  0  0  0  0  0  0  0  0  0
   40.0102   36.3831   40.0525 H   0  0  0  0  0  0  0  0  0  0  0  0
   41.4037   36.5519   38.9147 H   0  0  0  0  0  0  0  0  0  0  0  0
   39.4808   34.2884   39.2566 H   0  0  0  0  0  0  0  0  0  0  0  0
   41.5623   33.1121   40.1035 H   0  0  0  0  0  0  0  0  0  0  0  0
   42.5773   36.1557   38.1562 H   0  0  0  0  0  0  0  0  0  0  0  0
   40.7167   35.8650   37.3879 H   0  0  0  0  0  0  0  0  0  0  0  0
   45.8888   34.5231   40.1184 H   0  0  0  0  0  0  0  0  0  0  0  0
   45.6275   34.2928   45.0468 H   0  0  0  0  0  0  0  0  0  0  0  0
   48.0176   34.1475   40.4470 H   0  0  0  0  0  0  0  0  0  0  0  0
   49.6197   36.4999   40.7103 H   0  0  0  0  0  0  0  0  0  0  0  0
   48.8092   37.0333   41.9138 H   0  0  0  0  0  0  0  0  0  0  0  0
   49.4509   34.5241   43.2210 H   0  0  0  0  0  0  0  0  0  0  0  0
   50.4672   34.1203   42.1115 H   0  0  0  0  0  0  0  0  0  0  0  0
   39.8511   31.4960   36.6099 H   0  0  0  0  0  0  0  0  0  0  0  0
   37.9767   29.9320   36.9068 H   0  0  0  0  0  0  0  0  0  0  0  0
   37.6046   29.2343   39.4845 H   0  0  0  0  0  0  0  0  0  0  0  0
  1  6  1  0
  1  2  1  0
  2  3  1  0
  2  9  1  0
  4  3  1  0
  5  6  1  0
  5  4  1  0
  7  1  1  0
  8  5  1  0
  9 10  1  0
 10 15  1  0
 11 10  2  0
 11 12  1  0
 12 13  2  0
 13 14  1  0
 15 14  2  0
 16 17  1  0
 16 12  1  0
 16 18  1  0
 17 18  1  0
 19 20  1  0
 19  6  1  0
 20 24  1  0
 21 22  1  0
 21 20  2  0
 22 23  2  0
 23 24  1  0
  1 25  1  6
  2 26  1  6
  4 27  1  0
  4 28  1  0
  5 29  1  1
  6 30  1  1
  7 31  1  0
  8 32  1  0
 11 33  1  0
 14 34  1  0
 16 35  1  0
 17 36  1  0
 17 37  1  0
 18 38  1  0
 18 39  1  0
 21 40  1  0
 22 41  1  0
 23 42  1  0
M  ISO  8  25  13  26  13  27  13  28  13  29  13  30  13  31   3  32   3
M  ISO  8  33  14  34  14  35  13  36  13  37  13  38  13  39  13  40  14
M  ISO  2  41  14  42  14
M  END
>  <minimizedAffinity>  (1) 
-6.08430672

>  <minimizedRMSD>  (1) 
1.18340385

$$$$
