
     RDKit          3D

 46 49  0  0  1  0  0  0  0  0999 V2000
   42.8360   34.4580   38.7780 C   0  0  1  0  0  0  0  0  0  0  0  0
   42.9990   35.1810   40.1210 C   0  0  1  0  0  0  0  0  0  0  0  0
   41.7190   35.4860   40.6270 O   0  0  0  0  0  0  0  0  0  0  0  0
   40.8000   35.8030   39.6240 C   0  0  0  0  0  0  0  0  0  0  0  0
   40.4400   34.5580   38.8200 C   0  0  2  0  0  0  0  0  0  0  0  0
   41.6060   33.5800   38.9470 C   0  0  1  0  0  0  0  0  0  0  0  0
   42.6320   35.3880   37.7590 O   0  0  0  0  0  0  0  0  0  0  0  0
   40.4560   34.9370   37.4550 O   0  0  0  0  0  0  0  0  0  0  0  0
   43.4980   34.2210   41.0120 O   0  0  0  0  0  0  0  0  0  0  0  0
   44.6100   34.3380   41.7390 C   0  0  0  0  0  0  0  0  0  0  0  0
   45.8540   34.4660   41.1270 C   0  0  0  0  0  0  0  0  0  0  0  0
   46.9770   34.5860   41.9360 C   0  0  0  0  0  0  0  0  0  0  0  0
   46.8390   34.5750   43.3170 N   0  0  0  0  0  0  0  0  0  0  0  0
   45.6200   34.4490   43.8590 C   0  0  0  0  0  0  0  0  0  0  0  0
   44.5120   34.3310   43.0890 N   0  0  0  0  0  0  0  0  0  0  0  0
   48.3480   34.7180   41.3170 C   0  0  0  0  0  0  0  0  0  0  0  0
   49.0720   36.0270   41.5160 C   0  0  0  0  0  0  0  0  0  0  0  0
   49.5150   34.7020   42.1620 C   0  0  0  0  0  0  0  0  0  0  0  0
   41.5360   32.5890   37.9910 O   0  0  0  0  0  0  0  0  0  0  0  0
   41.2780   31.3460   38.4660 C   0  0  1  0  0  0  0  0  0  0  0  0
   41.4800   31.3530   39.9690 C   0  0  0  0  0  0  0  0  0  0  0  0
   40.0700   31.2020   40.4760 C   0  0  0  0  0  0  0  0  0  0  0  0
   39.5420   30.2710   39.5810 O   0  0  0  0  0  0  0  0  0  0  0  0
   39.8550   30.8750   38.3420 C   0  0  0  0  0  0  0  0  0  0  0  0
   43.7261   33.8700   38.5096 H   0  0  0  0  0  0  0  0  0  0  0  0
   43.6266   36.0772   40.0074 H   0  0  0  0  0  0  0  0  0  0  0  0
   39.8889   36.2135   40.0838 H   0  0  0  0  0  0  0  0  0  0  0  0
   41.2504   36.5457   38.9491 H   0  0  0  0  0  0  0  0  0  0  0  0
   39.4806   34.1371   39.1552 H   0  0  0  0  0  0  0  0  0  0  0  0
   41.6119   33.0410   39.9059 H   0  0  0  0  0  0  0  0  0  0  0  0
   42.4376   36.2742   38.1551 H   0  0  0  0  0  0  0  0  0  0  0  0
   40.4977   35.9238   37.3870 H   0  0  0  0  0  0  0  0  0  0  0  0
   45.9453   34.4720   40.0308 H   0  0  0  0  0  0  0  0  0  0  0  0
   45.5168   34.4412   44.9541 H   0  0  0  0  0  0  0  0  0  0  0  0
   48.0518   34.1214   40.4416 H   0  0  0  0  0  0  0  0  0  0  0  0
   49.6561   36.4735   40.6978 H   0  0  0  0  0  0  0  0  0  0  0  0
   48.8129   37.0376   41.8645 H   0  0  0  0  0  0  0  0  0  0  0  0
   49.4041   34.5573   43.2468 H   0  0  0  0  0  0  0  0  0  0  0  0
   50.4508   34.1240   42.1776 H   0  0  0  0  0  0  0  0  0  0  0  0
   41.9402   30.6987   37.8723 H   0  0  0  0  0  0  0  0  0  0  0  0
   42.1125   30.5126   40.2910 H   0  0  0  0  0  0  0  0  0  0  0  0
   41.9916   32.2520   40.3432 H   0  0  0  0  0  0  0  0  0  0  0  0
   40.0542   30.8195   41.5073 H   0  0  0  0  0  0  0  0  0  0  0  0
   39.5086   32.1470   40.5180 H   0  0  0  0  0  0  0  0  0  0  0  0
   39.1848   31.7259   38.1501 H   0  0  0  0  0  0  0  0  0  0  0  0
   39.7319   30.1717   37.5052 H   0  0  0  0  0  0  0  0  0  0  0  0
  1  6  1  0
  1  2  1  0
  2  3  1  0
  2  9  1  0
  4  3  1  0
  5  6  1  0
  5  4  1  0
  7  1  1  0
  8  5  1  0
  9 10  1  0
 10 15  1  0
 11 10  2  0
 11 12  1  0
 12 13  2  0
 13 14  1  0
 15 14  2  0
 16 17  1  0
 16 12  1  0
 16 18  1  0
 17 18  1  0
 19  6  1  0
 20 19  1  0
 20 21  1  0
 21 22  1  0
 23 22  1  0
 24 20  1  0
 24 23  1  0
  1 25  1  6
  2 26  1  6
  4 27  1  0
  4 28  1  0
  5 29  1  1
  6 30  1  1
  7 31  1  0
  8 32  1  0
 11 33  1  0
 14 34  1  0
 16 35  1  0
 17 36  1  0
 17 37  1  0
 18 38  1  0
 18 39  1  0
 20 40  1  6
 21 41  1  0
 21 42  1  0
 22 43  1  0
 22 44  1  0
 24 45  1  0
 24 46  1  0
M  ISO  8  25  13  26  13  27  13  28  13  29  13  30  13  31   3  32   3
M  ISO  8  33  14  34  14  35  13  36  13  37  13  38  13  39  13  40  13
M  ISO  6  41  13  42  13  43  13  44  13  45  13  46  13
M  END
>  <minimizedAffinity>  (1) 
-5.91609812

>  <minimizedRMSD>  (1) 
0.570355773

$$$$
