
     RDKit          3D

 39 41  0  0  1  0  0  0  0  0999 V2000
   42.8460   34.4900   38.7540 C   0  0  1  0  0  0  0  0  0  0  0  0
   42.9710   35.1590   40.1260 C   0  0  1  0  0  0  0  0  0  0  0  0
   41.6840   35.4120   40.6320 O   0  0  0  0  0  0  0  0  0  0  0  0
   40.7610   35.7370   39.6380 C   0  0  0  0  0  0  0  0  0  0  0  0
   40.4470   34.5250   38.7770 C   0  0  2  0  0  0  0  0  0  0  0  0
   41.6540   33.5810   38.8640 C   0  0  1  0  0  0  0  0  0  0  0  0
   42.6110   35.4540   37.7710 O   0  0  0  0  0  0  0  0  0  0  0  0
   40.4560   34.9430   37.4300 O   0  0  0  0  0  0  0  0  0  0  0  0
   43.5030   34.1850   40.9800 O   0  0  0  0  0  0  0  0  0  0  0  0
   44.6070   34.3190   41.7190 C   0  0  0  0  0  0  0  0  0  0  0  0
   45.8550   34.4510   41.1130 C   0  0  0  0  0  0  0  0  0  0  0  0
   46.9740   34.5890   41.9180 C   0  0  0  0  0  0  0  0  0  0  0  0
   46.8290   34.5940   43.2980 N   0  0  0  0  0  0  0  0  0  0  0  0
   45.6080   34.4630   43.8400 C   0  0  0  0  0  0  0  0  0  0  0  0
   44.5050   34.3270   43.0690 N   0  0  0  0  0  0  0  0  0  0  0  0
   48.3500   34.7190   41.3110 C   0  0  0  0  0  0  0  0  0  0  0  0
   49.0740   36.0290   41.5150 C   0  0  0  0  0  0  0  0  0  0  0  0
   49.5060   34.7060   42.1680 C   0  0  0  0  0  0  0  0  0  0  0  0
   41.5700   32.5990   37.9180 O   0  0  0  0  0  0  0  0  0  0  0  0
   40.9880   31.3650   38.0490 C   0  0  0  0  0  0  0  0  0  0  0  0
   41.0350   30.6240   37.0240 O   0  0  0  0  0  0  0  0  0  0  0  0
   40.3670   30.9180   39.2430 N   0  0  0  0  0  0  0  0  0  0  0  0
   43.7616   33.9464   38.4779 H   0  0  0  0  0  0  0  0  0  0  0  0
   43.5679   36.0802   40.0545 H   0  0  0  0  0  0  0  0  0  0  0  0
   39.8338   36.0944   40.1097 H   0  0  0  0  0  0  0  0  0  0  0  0
   41.1923   36.5216   38.9989 H   0  0  0  0  0  0  0  0  0  0  0  0
   39.4967   34.0696   39.0924 H   0  0  0  0  0  0  0  0  0  0  0  0
   41.7166   33.0096   39.8019 H   0  0  0  0  0  0  0  0  0  0  0  0
   42.3999   36.3200   38.2018 H   0  0  0  0  0  0  0  0  0  0  0  0
   40.4773   35.9320   37.3915 H   0  0  0  0  0  0  0  0  0  0  0  0
   45.9497   34.4457   40.0171 H   0  0  0  0  0  0  0  0  0  0  0  0
   45.5021   34.4663   44.9349 H   0  0  0  0  0  0  0  0  0  0  0  0
   48.0626   34.1210   40.4336 H   0  0  0  0  0  0  0  0  0  0  0  0
   49.6683   36.4726   40.7026 H   0  0  0  0  0  0  0  0  0  0  0  0
   48.8127   37.0410   41.8579 H   0  0  0  0  0  0  0  0  0  0  0  0
   49.3825   34.5644   43.2518 H   0  0  0  0  0  0  0  0  0  0  0  0
   50.4409   34.1271   42.1953 H   0  0  0  0  0  0  0  0  0  0  0  0
   39.9453   29.9792   39.2839 H   0  0  0  0  0  0  0  0  0  0  0  0
   40.3377   31.5322   40.0694 H   0  0  0  0  0  0  0  0  0  0  0  0
  1  6  1  0
  1  2  1  0
  2  3  1  0
  2  9  1  0
  4  3  1  0
  5  6  1  0
  5  4  1  0
  7  1  1  0
  8  5  1  0
  9 10  1  0
 10 15  1  0
 11 10  2  0
 11 12  1  0
 12 13  2  0
 13 14  1  0
 15 14  2  0
 16 17  1  0
 16 12  1  0
 16 18  1  0
 17 18  1  0
 19 20  1  0
 19  6  1  0
 20 22  1  0
 21 20  2  0
  1 23  1  6
  2 24  1  6
  4 25  1  0
  4 26  1  0
  5 27  1  1
  6 28  1  1
  7 29  1  0
  8 30  1  0
 11 31  1  0
 14 32  1  0
 16 33  1  0
 17 34  1  0
 17 35  1  0
 18 36  1  0
 18 37  1  0
 22 38  1  0
 22 39  1  0
M  ISO  8  23  13  24  13  25  13  26  13  27  13  28  13  29   3  30   3
M  ISO  7  31  14  32  14  33  13  34  13  35  13  36  13  37  13
M  END
>  <minimizedAffinity>  (1) 
-5.70483351

>  <minimizedRMSD>  (1) 
0.448841393

$$$$
