
     RDKit          3D

 37 39  0  0  1  0  0  0  0  0999 V2000
   42.8390   34.4940   38.7570 C   0  0  1  0  0  0  0  0  0  0  0  0
   42.9560   35.1630   40.1290 C   0  0  1  0  0  0  0  0  0  0  0  0
   41.6640   35.3930   40.6350 O   0  0  0  0  0  0  0  0  0  0  0  0
   40.7400   35.7150   39.6370 C   0  0  0  0  0  0  0  0  0  0  0  0
   40.4420   34.4980   38.7730 C   0  0  2  0  0  0  0  0  0  0  0  0
   41.6490   33.5570   38.8790 C   0  0  1  0  0  0  0  0  0  0  0  0
   42.5990   35.4440   37.7670 O   0  0  0  0  0  0  0  0  0  0  0  0
   40.4480   34.9300   37.4310 O   0  0  0  0  0  0  0  0  0  0  0  0
   43.4970   34.1920   40.9820 O   0  0  0  0  0  0  0  0  0  0  0  0
   44.6050   34.3390   41.7140 C   0  0  0  0  0  0  0  0  0  0  0  0
   45.8540   34.4550   41.1100 C   0  0  0  0  0  0  0  0  0  0  0  0
   46.9700   34.6070   41.9180 C   0  0  0  0  0  0  0  0  0  0  0  0
   46.8210   34.6390   43.2860 N   0  0  0  0  0  0  0  0  0  0  0  0
   45.5960   34.5220   43.8410 C   0  0  0  0  0  0  0  0  0  0  0  0
   44.4950   34.3720   43.0630 N   0  0  0  0  0  0  0  0  0  0  0  0
   48.3470   34.7190   41.3240 C   0  0  0  0  0  0  0  0  0  0  0  0
   49.0840   36.0280   41.5040 C   0  0  0  0  0  0  0  0  0  0  0  0
   49.5010   34.7170   42.1830 C   0  0  0  0  0  0  0  0  0  0  0  0
   41.6020   32.5900   37.8970 O   0  0  0  0  0  0  0  0  0  0  0  0
   40.8390   31.4440   38.0630 C   0  0  0  0  0  0  0  0  0  0  0  0
   39.7180   31.2380   37.4970 O   0  0  0  0  0  0  0  0  0  0  0  0
   43.7627   33.9661   38.4777 H   0  0  0  0  0  0  0  0  0  0  0  0
   43.5412   36.0918   40.0595 H   0  0  0  0  0  0  0  0  0  0  0  0
   39.8077   36.0631   40.1057 H   0  0  0  0  0  0  0  0  0  0  0  0
   41.1641   36.5067   39.0019 H   0  0  0  0  0  0  0  0  0  0  0  0
   39.4957   34.0256   39.0752 H   0  0  0  0  0  0  0  0  0  0  0  0
   41.6900   32.9820   39.8158 H   0  0  0  0  0  0  0  0  0  0  0  0
   42.3797   36.3123   38.1890 H   0  0  0  0  0  0  0  0  0  0  0  0
   40.4617   35.9195   37.4029 H   0  0  0  0  0  0  0  0  0  0  0  0
   45.9531   34.4266   40.0148 H   0  0  0  0  0  0  0  0  0  0  0  0
   45.4895   34.5486   44.9355 H   0  0  0  0  0  0  0  0  0  0  0  0
   48.0562   34.1046   40.4592 H   0  0  0  0  0  0  0  0  0  0  0  0
   49.6845   36.4497   40.6845 H   0  0  0  0  0  0  0  0  0  0  0  0
   48.8314   37.0491   41.8260 H   0  0  0  0  0  0  0  0  0  0  0  0
   49.3741   34.5992   43.2693 H   0  0  0  0  0  0  0  0  0  0  0  0
   50.4312   34.1313   42.2238 H   0  0  0  0  0  0  0  0  0  0  0  0
   41.2291   30.6601   38.7289 H   0  0  0  0  0  0  0  0  0  0  0  0
  1  6  1  0
  1  2  1  0
  2  3  1  0
  2  9  1  0
  4  3  1  0
  5  6  1  0
  5  4  1  0
  7  1  1  0
  8  5  1  0
  9 10  1  0
 10 15  1  0
 11 10  2  0
 11 12  1  0
 12 13  2  0
 13 14  1  0
 15 14  2  0
 16 17  1  0
 16 12  1  0
 16 18  1  0
 17 18  1  0
 19 20  1  0
 19  6  1  0
 21 20  2  0
  1 22  1  6
  2 23  1  6
  4 24  1  0
  4 25  1  0
  5 26  1  1
  6 27  1  1
  7 28  1  0
  8 29  1  0
 11 30  1  0
 14 31  1  0
 16 32  1  0
 17 33  1  0
 17 34  1  0
 18 35  1  0
 18 36  1  0
 20 37  1  0
M  ISO  8  22  13  23  13  24  13  25  13  26  13  27  13  28   3  29   3
M  ISO  8  30  14  31  14  32  13  33  13  34  13  35  13  36  13  37   6
M  END
>  <minimizedAffinity>  (1) 
-5.63234663

>  <minimizedRMSD>  (1) 
0.457000971

$$$$
