
     RDKit          3D

 26 27  0  0  0  0  0  0  0  0999 V2000
   44.4500   36.0010   44.8280 C   0  0  0  0  0  0  0  0  0  0  0  0
   45.1370   35.8980   43.5860 C   0  0  0  0  0  0  0  0  0  0  0  0
   46.0020   34.8310   43.4060 C   0  0  0  0  0  0  0  0  0  0  0  0
   46.1500   33.9470   44.4120 N   0  0  0  0  0  0  0  0  0  0  0  0
   45.5000   34.0520   45.5750 C   0  0  0  0  0  0  0  0  0  0  0  0
   44.6510   35.0860   45.7740 N   0  0  0  0  0  0  0  0  0  0  0  0
   46.2100   33.9900   41.0800 C   0  0  0  0  0  0  0  0  0  0  0  0
   46.7160   34.7100   42.1420 C   0  0  0  0  0  0  0  0  0  0  0  0
   47.9380   35.3080   41.9440 C   0  0  0  0  0  0  0  0  0  0  0  0
   48.6680   35.2340   40.7780 C   0  0  0  0  0  0  0  0  0  0  0  0
   48.1720   34.5190   39.7090 C   0  0  0  0  0  0  0  0  0  0  0  0
   46.9490   33.9130   39.8920 C   0  0  0  0  0  0  0  0  0  0  0  0
   44.6750   33.1860   41.1950 S   0  0  0  0  0  0  0  0  0  0  0  0
   44.5300   32.0110   40.3010 O   0  0  0  0  0  0  0  0  0  0  0  0
   43.5930   34.1860   40.8140 O   0  0  0  0  0  0  0  0  0  0  0  0
   45.8130   32.9690   46.5450 C   0  0  0  0  0  0  0  0  0  0  0  0
   44.9910   33.0300   47.6520 F   0  0  0  0  0  0  0  0  0  0  0  0
   47.1290   33.0680   46.9750 F   0  0  0  0  0  0  0  0  0  0  0  0
   45.6950   31.7450   45.9180 F   0  0  0  0  0  0  0  0  0  0  0  0
   43.7546   36.8345   45.0060 H   0  0  0  0  0  0  0  0  0  0  0  0
   44.9856   36.6440   42.7919 H   0  0  0  0  0  0  0  0  0  0  0  0
   48.3636   35.8873   42.7766 H   0  0  0  0  0  0  0  0  0  0  0  0
   49.6405   35.7422   40.7006 H   0  0  0  0  0  0  0  0  0  0  0  0
   48.7234   34.4369   38.7607 H   0  0  0  0  0  0  0  0  0  0  0  0
   46.5276   33.3346   39.0566 H   0  0  0  0  0  0  0  0  0  0  0  0
   44.5698   32.7269   42.4815 H   0  0  0  0  0  0  0  0  0  0  0  0
  1  6  2  0
  2  1  1  0
  3  2  2  0
  3  4  1  0
  4  5  2  0
  5  6  1  0
  5 16  1  0
  7 13  1  0
  7  8  2  0
  8  3  1  0
  9  8  1  0
 10  9  2  0
 11 12  2  0
 11 10  1  0
 12  7  1  0
 14 13  2  0
 15 13  2  0
 16 18  1  0
 16 17  1  0
 19 16  1  0
  1 20  1  0
  2 21  1  0
  9 22  1  0
 10 23  1  0
 11 24  1  0
 12 25  1  0
 13 26  1  0
M  ISO  7  20  14  21  14  22  14  23  14  24  14  25  14  26  11
M  END
>  <minimizedAffinity>  (1) 
-6.02205896

>  <minimizedRMSD>  (1) 
2.70108414

$$$$
