
     RDKit          3D

 27 29  0  0  0  0  0  0  0  0999 V2000
   44.8280   33.1660   41.1080 Cl  0  0  0  0  0  0  0  0  0  0  0  0
   46.3460   33.9690   40.9000 C   0  0  0  0  0  0  0  0  0  0  0  0
   46.8740   34.7410   41.9160 C   0  0  0  0  0  0  0  0  0  0  0  0
   48.0870   35.4050   41.7990 C   0  0  0  0  0  0  0  0  0  0  0  0
   48.7360   35.2430   40.5930 C   0  0  0  0  0  0  0  0  0  0  0  0
   48.2340   34.4910   39.5860 C   0  0  0  0  0  0  0  0  0  0  0  0
   47.0320   33.8410   39.7190 C   0  0  0  0  0  0  0  0  0  0  0  0
   45.5970   34.0500   45.3180 C   0  0  0  0  0  0  0  0  0  0  0  0
   44.7060   35.1130   45.5190 C   0  0  0  0  0  0  0  0  0  0  0  0
   44.5510   36.0440   44.5020 C   0  0  0  0  0  0  0  0  0  0  0  0
   45.2630   35.8940   43.3590 N   0  0  0  0  0  0  0  0  0  0  0  0
   46.1230   34.8640   43.1710 C   0  0  0  0  0  0  0  0  0  0  0  0
   46.2740   33.9570   44.1590 N   0  0  0  0  0  0  0  0  0  0  0  0
   46.6090   33.0620   38.5510 C   0  0  0  0  0  0  0  0  0  0  0  0
   46.8750   33.5730   37.2850 C   0  0  0  0  0  0  0  0  0  0  0  0
   46.1790   32.2840   36.1510 S   0  0  0  0  0  0  0  0  0  0  0  0
   45.6380   31.2580   37.6520 C   0  0  0  0  0  0  0  0  0  0  0  0
   45.9950   31.9150   38.4860 N   0  0  0  0  0  0  0  0  0  0  0  0
   44.7640   29.6240   37.7490 S   0  0  0  0  0  0  0  0  0  0  0  0
   48.5022   36.0183   42.6123 H   0  0  0  0  0  0  0  0  0  0  0  0
   49.7026   35.7463   40.4432 H   0  0  0  0  0  0  0  0  0  0  0  0
   48.7980   34.3991   38.6460 H   0  0  0  0  0  0  0  0  0  0  0  0
   45.7422   33.2948   46.1045 H   0  0  0  0  0  0  0  0  0  0  0  0
   44.1436   35.2069   46.4597 H   0  0  0  0  0  0  0  0  0  0  0  0
   43.8601   36.8915   44.6219 H   0  0  0  0  0  0  0  0  0  0  0  0
   47.3774   34.5152   37.0209 H   0  0  0  0  0  0  0  0  0  0  0  0
   44.5808   29.2814   39.0628 H   0  0  0  0  0  0  0  0  0  0  0  0
  2  1  1  0
  2  3  2  0
  3 12  1  0
  4  3  1  0
  5  4  2  0
  6  7  2  0
  6  5  1  0
  7  2  1  0
  8  9  2  0
 10  9  1  0
 11 10  2  0
 12 11  1  0
 12 13  2  0
 13  8  1  0
 14  7  1  0
 15 14  2  0
 16 15  1  0
 16 17  1  0
 17 19  1  0
 17 18  2  0
 18 14  1  0
  4 20  1  0
  5 21  1  0
  6 22  1  0
  8 23  1  0
  9 24  1  0
 10 25  1  0
 15 26  1  0
 19 27  1  0
M  ISO  8  20  14  21  14  22  14  23  14  24  14  25  14  26  14  27  11
M  END
>  <minimizedAffinity>  (1) 
-5.50076199

>  <minimizedRMSD>  (1) 
0.0222615618

$$$$
