
     RDKit          3D

 25 26  0  0  0  0  0  0  0  0999 V2000
   44.5850   35.8610   44.4260 C   0  0  0  0  0  0  0  0  0  0  0  0
   45.4480   35.7360   43.3250 C   0  0  0  0  0  0  0  0  0  0  0  0
   46.3790   34.7090   43.3670 C   0  0  0  0  0  0  0  0  0  0  0  0
   46.4310   33.8830   44.4320 N   0  0  0  0  0  0  0  0  0  0  0  0
   45.5790   34.0350   45.4770 C   0  0  0  0  0  0  0  0  0  0  0  0
   44.6630   35.0220   45.4680 N   0  0  0  0  0  0  0  0  0  0  0  0
   47.2930   34.5100   42.2960 N   0  0  0  0  0  0  0  0  0  0  0  0
   47.0680   34.0870   40.9280 C   0  0  0  0  0  0  0  0  0  0  0  0
   48.1390   34.7190   40.0720 C   0  0  0  0  0  0  0  0  0  0  0  0
   48.8890   35.5700   41.0740 C   0  0  0  0  0  0  0  0  0  0  0  0
   48.7310   34.6960   42.3270 C   0  0  0  0  0  0  0  0  0  0  0  0
   45.7720   33.0430   46.5620 C   0  0  0  0  0  0  0  0  0  0  0  0
   44.9150   33.2220   47.6060 F   0  0  0  0  0  0  0  0  0  0  0  0
   47.0920   33.1120   47.0350 F   0  0  0  0  0  0  0  0  0  0  0  0
   45.6690   31.7560   46.0360 F   0  0  0  0  0  0  0  0  0  0  0  0
   43.8313   36.6622   44.4331 H   0  0  0  0  0  0  0  0  0  0  0  0
   45.3881   36.4223   42.4674 H   0  0  0  0  0  0  0  0  0  0  0  0
   47.1312   32.9910   40.8592 H   0  0  0  0  0  0  0  0  0  0  0  0
   46.0689   34.3968   40.5875 H   0  0  0  0  0  0  0  0  0  0  0  0
   48.7948   33.9566   39.6263 H   0  0  0  0  0  0  0  0  0  0  0  0
   47.7428   35.2884   39.2183 H   0  0  0  0  0  0  0  0  0  0  0  0
   49.9452   35.6969   40.7940 H   0  0  0  0  0  0  0  0  0  0  0  0
   48.5216   36.6018   41.1764 H   0  0  0  0  0  0  0  0  0  0  0  0
   49.0596   35.2180   43.2378 H   0  0  0  0  0  0  0  0  0  0  0  0
   49.3269   33.7714   42.3363 H   0  0  0  0  0  0  0  0  0  0  0  0
  1  6  2  0
  2  3  2  0
  2  1  1  0
  3  4  1  0
  4  5  2  0
  5 12  1  0
  6  5  1  0
  7 11  1  0
  7  3  1  0
  8  7  1  0
  9  8  1  0
  9 10  1  0
 10 11  1  0
 12 14  1  0
 12 13  1  0
 15 12  1  0
  1 16  1  0
  2 17  1  0
  8 18  1  0
  8 19  1  0
  9 20  1  0
  9 21  1  0
 10 22  1  0
 10 23  1  0
 11 24  1  0
 11 25  1  0
M  ISO  8  16  14  17  14  18  13  19  13  20  13  21  13  22  13  23  13
M  ISO  2  24  13  25  13
M  END
>  <minimizedAffinity>  (1) 
-5.45221996

>  <minimizedRMSD>  (1) 
0.942140818

$$$$
