
     RDKit          3D

 26 27  0  0  0  0  0  0  0  0999 V2000
   44.5970   35.8100   44.4590 C   0  0  0  0  0  0  0  0  0  0  0  0
   45.4590   35.6420   43.3460 C   0  0  0  0  0  0  0  0  0  0  0  0
   46.3750   34.6030   43.4110 C   0  0  0  0  0  0  0  0  0  0  0  0
   46.4220   33.8030   44.4950 N   0  0  0  0  0  0  0  0  0  0  0  0
   45.5820   33.9930   45.5420 C   0  0  0  0  0  0  0  0  0  0  0  0
   44.6770   34.9970   45.5110 N   0  0  0  0  0  0  0  0  0  0  0  0
   47.2790   34.3590   42.3400 N   0  0  0  0  0  0  0  0  0  0  0  0
   47.2900   33.2020   41.5160 C   0  0  0  0  0  0  0  0  0  0  0  0
   46.8260   33.7020   40.1410 C   0  0  0  0  0  0  0  0  0  0  0  0
   47.9800   34.4870   39.6000 C   0  0  0  0  0  0  0  0  0  0  0  0
   48.7410   35.2930   40.5790 C   0  0  0  0  0  0  0  0  0  0  0  0
   48.2950   35.2960   41.9900 C   0  0  0  0  0  0  0  0  0  0  0  0
   45.7670   33.0280   46.6510 C   0  0  0  0  0  0  0  0  0  0  0  0
   44.8950   33.2310   47.6790 F   0  0  0  0  0  0  0  0  0  0  0  0
   47.0700   33.0900   47.1260 F   0  0  0  0  0  0  0  0  0  0  0  0
   45.6410   31.7280   46.1450 F   0  0  0  0  0  0  0  0  0  0  0  0
   43.8538   36.6209   44.4537 H   0  0  0  0  0  0  0  0  0  0  0  0
   45.4037   36.3058   42.4706 H   0  0  0  0  0  0  0  0  0  0  0  0
   48.3036   32.7791   41.4538 H   0  0  0  0  0  0  0  0  0  0  0  0
   46.6440   32.4033   41.9094 H   0  0  0  0  0  0  0  0  0  0  0  0
   46.5927   32.8539   39.4805 H   0  0  0  0  0  0  0  0  0  0  0  0
   45.9117   34.3096   40.2111 H   0  0  0  0  0  0  0  0  0  0  0  0
   48.6795   33.7769   39.1347 H   0  0  0  0  0  0  0  0  0  0  0  0
   47.5387   35.2136   38.9019 H   0  0  0  0  0  0  0  0  0  0  0  0
   49.6188   35.8771   40.2654 H   0  0  0  0  0  0  0  0  0  0  0  0
   48.7253   35.9859   42.7309 H   0  0  0  0  0  0  0  0  0  0  0  0
  1  6  2  0
  2  3  2  0
  2  1  1  0
  3  4  1  0
  4  5  2  0
  5 13  1  0
  6  5  1  0
  7  3  1  0
  8  7  1  0
  9  8  1  0
 10  9  1  0
 10 11  1  0
 11 12  2  0
 12  7  1  0
 13 15  1  0
 13 14  1  0
 16 13  1  0
  1 17  1  0
  2 18  1  0
  8 19  1  0
  8 20  1  0
  9 21  1  0
  9 22  1  0
 10 23  1  0
 10 24  1  0
 11 25  1  0
 12 26  1  0
M  ISO  8  17  14  18  14  19  13  20  13  21  13  22  13  23  13  24  13
M  ISO  2  25  13  26  13
M  END
>  <minimizedAffinity>  (1) 
-5.44905186

>  <minimizedRMSD>  (1) 
0.855709016

$$$$
