
     RDKit          3D

 20 21  0  0  0  0  0  0  0  0999 V2000
   44.4740   36.0480   44.6790 C   0  0  0  0  0  0  0  0  0  0  0  0
   45.1560   35.9860   43.4540 C   0  0  0  0  0  0  0  0  0  0  0  0
   46.0440   34.9200   43.2660 C   0  0  0  0  0  0  0  0  0  0  0  0
   46.2020   34.0110   44.2620 N   0  0  0  0  0  0  0  0  0  0  0  0
   45.5220   34.1120   45.4310 C   0  0  0  0  0  0  0  0  0  0  0  0
   44.6570   35.1360   45.6320 N   0  0  0  0  0  0  0  0  0  0  0  0
   46.8060   34.7570   42.0300 C   0  0  0  0  0  0  0  0  0  0  0  0
   48.0620   35.3140   41.8370 C   0  0  0  0  0  0  0  0  0  0  0  0
   48.4910   34.9600   40.5520 C   0  0  0  0  0  0  0  0  0  0  0  0
   47.4680   34.2070   40.0430 C   0  0  0  0  0  0  0  0  0  0  0  0
   46.5060   34.1110   40.9290 O   0  0  0  0  0  0  0  0  0  0  0  0
   45.8340   33.0170   46.3960 C   0  0  0  0  0  0  0  0  0  0  0  0
   45.0110   33.0480   47.4830 F   0  0  0  0  0  0  0  0  0  0  0  0
   47.1610   33.1260   46.8120 F   0  0  0  0  0  0  0  0  0  0  0  0
   45.7590   31.8000   45.7350 F   0  0  0  0  0  0  0  0  0  0  0  0
   43.7685   36.8730   44.8570 H   0  0  0  0  0  0  0  0  0  0  0  0
   44.9992   36.7445   42.6729 H   0  0  0  0  0  0  0  0  0  0  0  0
   48.6202   35.9238   42.5627 H   0  0  0  0  0  0  0  0  0  0  0  0
   49.4385   35.2274   40.0614 H   0  0  0  0  0  0  0  0  0  0  0  0
   47.4546   33.7512   39.0420 H   0  0  0  0  0  0  0  0  0  0  0  0
  1  6  2  0
  2  1  1  0
  3  2  2  0
  3  4  1  0
  4  5  2  0
  5  6  1  0
  5 12  1  0
  7  3  1  0
  8  7  2  0
  9  8  1  0
 10  9  2  0
 10 11  1  0
 11  7  1  0
 12 14  1  0
 12 13  1  0
 15 12  1  0
  1 16  1  0
  2 17  1  0
  8 18  1  0
  9 19  1  0
 10 20  1  0
M  ISO  5  16  14  17  14  18  14  19  14  20  14
M  END
>  <minimizedAffinity>  (1) 
-5.41188669

>  <minimizedRMSD>  (1) 
0.804456294

$$$$
