
     RDKit          3D

 19 19  0  0  0  0  0  0  0  0999 V2000
   44.5830   36.1170   44.2940 C   0  0  0  0  0  0  0  0  0  0  0  0
   45.3190   35.9910   43.0850 C   0  0  0  0  0  0  0  0  0  0  0  0
   46.1860   34.9080   42.9830 C   0  0  0  0  0  0  0  0  0  0  0  0
   46.2760   34.0540   44.0220 N   0  0  0  0  0  0  0  0  0  0  0  0
   45.5710   34.1940   45.1540 C   0  0  0  0  0  0  0  0  0  0  0  0
   44.7240   35.2280   45.2860 N   0  0  0  0  0  0  0  0  0  0  0  0
   45.8300   33.1380   46.1610 C   0  0  0  0  0  0  0  0  0  0  0  0
   44.9770   33.2410   47.2360 F   0  0  0  0  0  0  0  0  0  0  0  0
   47.1410   33.2110   46.6110 F   0  0  0  0  0  0  0  0  0  0  0  0
   45.7140   31.8790   45.5590 F   0  0  0  0  0  0  0  0  0  0  0  0
   46.9040   34.7850   41.8010 O   0  0  0  0  0  0  0  0  0  0  0  0
   49.0810   36.2420   41.4870 O   0  0  0  0  0  0  0  0  0  0  0  0
   48.6070   34.8580   41.8490 P   0  0  0  0  0  0  0  0  0  0  0  0
   49.1810   33.7610   40.7030 O   0  0  0  0  0  0  0  0  0  0  0  0
   49.1990   34.4710   43.3850 O   0  0  0  0  0  0  0  0  0  0  0  0
   43.8857   36.9588   44.4173 H   0  0  0  0  0  0  0  0  0  0  0  0
   45.2081   36.7174   42.2664 H   0  0  0  0  0  0  0  0  0  0  0  0
   49.5872   32.9846   41.1638 H   0  0  0  0  0  0  0  0  0  0  0  0
   48.6049   34.8594   44.0751 H   0  0  0  0  0  0  0  0  0  0  0  0
  1  6  2  0
  2  1  1  0
  3  2  2  0
  3  4  1  0
  4  5  2  0
  5  6  1  0
  5  7  1  0
  7  9  1  0
  7  8  1  0
 10  7  1  0
 11 13  1  0
 11  3  1  0
 12 13  2  0
 13 15  1  0
 14 13  1  0
  1 16  1  0
  2 17  1  0
 14 18  1  0
 15 19  1  0
M  ISO  4  16  14  17  14  18   3  19   3
M  END
>  <minimizedAffinity>  (1) 
-5.25823927

>  <minimizedRMSD>  (1) 
1.03492641

$$$$
