
     RDKit          3D

 16 16  0  0  0  0  0  0  0  0999 V2000
   44.5260   36.0290   44.5190 C   0  0  0  0  0  0  0  0  0  0  0  0
   45.2640   35.9050   43.3280 C   0  0  0  0  0  0  0  0  0  0  0  0
   46.1480   34.8400   43.2310 C   0  0  0  0  0  0  0  0  0  0  0  0
   46.2690   33.9720   44.2690 N   0  0  0  0  0  0  0  0  0  0  0  0
   45.5440   34.1220   45.3960 C   0  0  0  0  0  0  0  0  0  0  0  0
   44.6700   35.1570   45.5170 N   0  0  0  0  0  0  0  0  0  0  0  0
   45.8080   33.0810   46.4190 C   0  0  0  0  0  0  0  0  0  0  0  0
   44.9580   33.1860   47.4960 F   0  0  0  0  0  0  0  0  0  0  0  0
   47.1250   33.1470   46.8460 F   0  0  0  0  0  0  0  0  0  0  0  0
   45.6810   31.8240   45.8330 F   0  0  0  0  0  0  0  0  0  0  0  0
   46.9680   34.6490   41.9840 C   0  0  0  0  0  0  0  0  0  0  0  0
   47.8120   35.7480   41.9210 F   0  0  0  0  0  0  0  0  0  0  0  0
   47.7360   33.5190   42.1480 F   0  0  0  0  0  0  0  0  0  0  0  0
   46.1450   34.6380   40.9050 F   0  0  0  0  0  0  0  0  0  0  0  0
   43.8160   36.8620   44.6291 H   0  0  0  0  0  0  0  0  0  0  0  0
   45.1448   36.6249   42.5049 H   0  0  0  0  0  0  0  0  0  0  0  0
  1  6  2  0
  2  1  1  0
  3  2  2  0
  3  4  1  0
  4  5  2  0
  5  6  1  0
  5  7  1  0
  7  9  1  0
  7  8  1  0
 10  7  1  0
 11 13  1  0
 11  3  1  0
 12 11  1  0
 14 11  1  0
  1 15  1  0
  2 16  1  0
M  ISO  2  15  14  16  14
M  END
>  <minimizedAffinity>  (1) 
-4.88019371

>  <minimizedRMSD>  (1) 
0.290101409

$$$$
