
     RDKit          3D

 29 31  0  0  0  0  0  0  0  0999 V2000
   44.4160   36.1010   44.8080 C   0  0  0  0  0  0  0  0  0  0  0  0
   45.0540   36.0550   43.5580 C   0  0  0  0  0  0  0  0  0  0  0  0
   45.9260   35.0010   43.2990 C   0  0  0  0  0  0  0  0  0  0  0  0
   46.0860   34.0900   44.2910 N   0  0  0  0  0  0  0  0  0  0  0  0
   45.4740   34.1450   45.4720 C   0  0  0  0  0  0  0  0  0  0  0  0
   44.6400   35.1590   45.7160 N   0  0  0  0  0  0  0  0  0  0  0  0
   46.6020   34.7520   42.0600 C   0  0  0  0  0  0  0  0  0  0  0  0
   47.8870   35.3050   41.9630 C   0  0  0  0  0  0  0  0  0  0  0  0
   48.7100   35.2020   40.8640 C   0  0  0  0  0  0  0  0  0  0  0  0
   48.2800   34.5140   39.7530 C   0  0  0  0  0  0  0  0  0  0  0  0
   47.0290   33.9530   39.7880 C   0  0  0  0  0  0  0  0  0  0  0  0
   46.5330   33.2860   38.6990 C   0  0  0  0  0  0  0  0  0  0  0  0
   45.2600   32.7370   38.6740 C   0  0  0  0  0  0  0  0  0  0  0  0
   44.4780   32.8870   39.8230 C   0  0  0  0  0  0  0  0  0  0  0  0
   45.0110   33.5600   40.8920 C   0  0  0  0  0  0  0  0  0  0  0  0
   46.2630   34.0960   40.9160 C   0  0  0  0  0  0  0  0  0  0  0  0
   45.8080   33.0220   46.4000 C   0  0  0  0  0  0  0  0  0  0  0  0
   45.0000   33.0040   47.4930 F   0  0  0  0  0  0  0  0  0  0  0  0
   47.1470   33.1160   46.7870 F   0  0  0  0  0  0  0  0  0  0  0  0
   45.7510   31.8180   45.6820 F   0  0  0  0  0  0  0  0  0  0  0  0
   43.7243   36.9251   45.0369 H   0  0  0  0  0  0  0  0  0  0  0  0
   44.8694   36.8325   42.8021 H   0  0  0  0  0  0  0  0  0  0  0  0
   48.2665   35.8637   42.8312 H   0  0  0  0  0  0  0  0  0  0  0  0
   49.7066   35.6676   40.8743 H   0  0  0  0  0  0  0  0  0  0  0  0
   48.9200   34.4168   38.8637 H   0  0  0  0  0  0  0  0  0  0  0  0
   47.1703   33.1818   37.8085 H   0  0  0  0  0  0  0  0  0  0  0  0
   44.8816   32.2062   37.7880 H   0  0  0  0  0  0  0  0  0  0  0  0
   43.4591   32.4748   39.8684 H   0  0  0  0  0  0  0  0  0  0  0  0
   44.3860   33.6747   41.7899 H   0  0  0  0  0  0  0  0  0  0  0  0
  1  6  2  0
  2  1  1  0
  3  2  2  0
  3  4  1  0
  4  5  2  0
  5  6  1  0
  5 17  1  0
  7  3  1  0
  8  7  2  0
  9  8  1  0
 10 11  1  0
 10  9  2  0
 11 16  2  0
 12 11  1  0
 13 12  2  0
 13 14  1  0
 14 15  2  0
 15 16  1  0
 16  7  1  0
 17 19  1  0
 17 18  1  0
 20 17  1  0
  1 21  1  0
  2 22  1  0
  8 23  1  0
  9 24  1  0
 10 25  1  0
 12 26  1  0
 13 27  1  0
 14 28  1  0
 15 29  1  0
M  ISO  8  21  14  22  14  23  14  24  14  25  14  26  14  27  14  28  14
M  ISO  1  29  14
M  END
>  <minimizedAffinity>  (1) 
-6.56045151

>  <minimizedRMSD>  (1) 
1.83703601

$$$$
