
     RDKit          3D

 32 34  0  0  0  0  0  0  0  0999 V2000
   46.6180   34.7420   42.1280 C   0  0  0  0  0  0  0  0  0  0  0  0
   47.8490   35.3700   42.0830 C   0  0  0  0  0  0  0  0  0  0  0  0
   48.7070   35.3330   40.9900 C   0  0  0  0  0  0  0  0  0  0  0  0
   48.3370   34.6390   39.8700 C   0  0  0  0  0  0  0  0  0  0  0  0
   47.1100   34.0020   39.8820 C   0  0  0  0  0  0  0  0  0  0  0  0
   46.6640   33.3560   38.7760 C   0  0  0  0  0  0  0  0  0  0  0  0
   45.4340   32.7660   38.7150 C   0  0  0  0  0  0  0  0  0  0  0  0
   44.6500   32.8550   39.8540 C   0  0  0  0  0  0  0  0  0  0  0  0
   45.0820   33.5010   40.9890 C   0  0  0  0  0  0  0  0  0  0  0  0
   46.3030   34.0720   40.9950 C   0  0  0  0  0  0  0  0  0  0  0  0
   44.4240   36.0650   44.8650 C   0  0  0  0  0  0  0  0  0  0  0  0
   45.0410   35.9980   43.6290 C   0  0  0  0  0  0  0  0  0  0  0  0
   45.9260   34.9200   43.3330 C   0  0  0  0  0  0  0  0  0  0  0  0
   46.0580   34.0760   44.3690 N   0  0  0  0  0  0  0  0  0  0  0  0
   45.4800   34.1300   45.5380 C   0  0  0  0  0  0  0  0  0  0  0  0
   44.6530   35.1400   45.7750 N   0  0  0  0  0  0  0  0  0  0  0  0
   45.8030   32.9910   46.4500 C   0  0  0  0  0  0  0  0  0  0  0  0
   44.9700   32.9530   47.5350 F   0  0  0  0  0  0  0  0  0  0  0  0
   47.1320   33.0770   46.8320 F   0  0  0  0  0  0  0  0  0  0  0  0
   45.7500   31.7890   45.7170 F   0  0  0  0  0  0  0  0  0  0  0  0
   44.0030   33.4560   41.9980 C   0  0  0  0  0  0  0  0  0  0  0  0
   43.0840   32.5290   42.0140 F   0  0  0  0  0  0  0  0  0  0  0  0
   43.7630   34.7160   42.5300 F   0  0  0  0  0  0  0  0  0  0  0  0
   44.4800   33.0180   43.2380 F   0  0  0  0  0  0  0  0  0  0  0  0
   48.1703   35.9358   42.9699 H   0  0  0  0  0  0  0  0  0  0  0  0
   49.6739   35.8564   41.0249 H   0  0  0  0  0  0  0  0  0  0  0  0
   48.9942   34.5896   38.9893 H   0  0  0  0  0  0  0  0  0  0  0  0
   47.3187   33.3053   37.8935 H   0  0  0  0  0  0  0  0  0  0  0  0
   45.0843   32.2477   37.8100 H   0  0  0  0  0  0  0  0  0  0  0  0
   43.6509   32.3947   39.8505 H   0  0  0  0  0  0  0  0  0  0  0  0
   43.7382   36.8952   45.0896 H   0  0  0  0  0  0  0  0  0  0  0  0
   44.8491   36.7756   42.8750 H   0  0  0  0  0  0  0  0  0  0  0  0
  1 13  1  0
  2  1  2  0
  3  2  1  0
  4  5  1  0
  4  3  2  0
  5 10  2  0
  6  5  1  0
  7  6  2  0
  7  8  1  0
  8  9  2  0
  9 10  1  0
  9 21  1  0
 10  1  1  0
 11 16  2  0
 12 11  1  0
 13 12  2  0
 13 14  1  0
 14 15  2  0
 15 16  1  0
 15 17  1  0
 17 19  1  0
 17 18  1  0
 20 17  1  0
 21 22  1  0
 21 23  1  0
 21 24  1  0
  2 25  1  0
  3 26  1  0
  4 27  1  0
  6 28  1  0
  7 29  1  0
  8 30  1  0
 11 31  1  0
 12 32  1  0
M  ISO  8  25  14  26  14  27  14  28  14  29  14  30  14  31  14  32  14
M  END
>  <minimizedAffinity>  (1) 
-7.06676006

>  <minimizedRMSD>  (1) 
0.35188055

$$$$
