
     RDKit          3D

 32 34  0  0  0  0  0  0  0  0999 V2000
   46.6770   34.7950   42.0900 C   0  0  0  0  0  0  0  0  0  0  0  0
   47.9080   35.4180   42.0540 C   0  0  0  0  0  0  0  0  0  0  0  0
   48.7750   35.3750   40.9690 C   0  0  0  0  0  0  0  0  0  0  0  0
   48.4170   34.6760   39.8450 C   0  0  0  0  0  0  0  0  0  0  0  0
   47.1910   34.0400   39.8480 C   0  0  0  0  0  0  0  0  0  0  0  0
   46.7690   33.3670   38.7420 C   0  0  0  0  0  0  0  0  0  0  0  0
   45.5450   32.7570   38.6740 C   0  0  0  0  0  0  0  0  0  0  0  0
   44.7410   32.8520   39.7990 C   0  0  0  0  0  0  0  0  0  0  0  0
   45.1630   33.5270   40.9190 C   0  0  0  0  0  0  0  0  0  0  0  0
   46.3760   34.1170   40.9480 C   0  0  0  0  0  0  0  0  0  0  0  0
   44.4160   36.0760   44.7970 C   0  0  0  0  0  0  0  0  0  0  0  0
   45.0540   36.0320   43.5700 C   0  0  0  0  0  0  0  0  0  0  0  0
   45.9590   34.9740   43.2910 C   0  0  0  0  0  0  0  0  0  0  0  0
   46.0950   34.1100   44.3170 N   0  0  0  0  0  0  0  0  0  0  0  0
   45.4920   34.1500   45.4790 C   0  0  0  0  0  0  0  0  0  0  0  0
   44.6430   35.1500   45.7100 N   0  0  0  0  0  0  0  0  0  0  0  0
   45.8180   33.0140   46.3940 C   0  0  0  0  0  0  0  0  0  0  0  0
   44.9870   32.9750   47.4780 F   0  0  0  0  0  0  0  0  0  0  0  0
   47.1460   33.0920   46.7730 F   0  0  0  0  0  0  0  0  0  0  0  0
   45.7450   31.8090   45.6550 F   0  0  0  0  0  0  0  0  0  0  0  0
   44.1540   33.5240   42.0160 C   0  0  0  0  0  0  0  0  0  0  0  0
   48.2233   35.9855   42.9420 H   0  0  0  0  0  0  0  0  0  0  0  0
   49.7418   35.8980   41.0115 H   0  0  0  0  0  0  0  0  0  0  0  0
   49.0831   34.6236   38.9712 H   0  0  0  0  0  0  0  0  0  0  0  0
   47.4370   33.3113   37.8698 H   0  0  0  0  0  0  0  0  0  0  0  0
   45.2165   32.2190   37.7725 H   0  0  0  0  0  0  0  0  0  0  0  0
   43.7480   32.3789   39.7952 H   0  0  0  0  0  0  0  0  0  0  0  0
   43.7113   36.8922   45.0142 H   0  0  0  0  0  0  0  0  0  0  0  0
   44.8617   36.8103   42.8168 H   0  0  0  0  0  0  0  0  0  0  0  0
   44.6691   33.5255   42.9879 H   0  0  0  0  0  0  0  0  0  0  0  0
   43.5215   34.4203   41.9348 H   0  0  0  0  0  0  0  0  0  0  0  0
   43.5268   32.6240   41.9348 H   0  0  0  0  0  0  0  0  0  0  0  0
  1 13  1  0
  2  1  2  0
  3  2  1  0
  4  5  1  0
  4  3  2  0
  5 10  2  0
  6  5  1  0
  7  6  2  0
  7  8  1  0
  8  9  2  0
  9 10  1  0
  9 21  1  0
 10  1  1  0
 11 16  2  0
 12 11  1  0
 13 12  2  0
 13 14  1  0
 14 15  2  0
 15 16  1  0
 15 17  1  0
 17 19  1  0
 17 18  1  0
 20 17  1  0
  2 22  1  0
  3 23  1  0
  4 24  1  0
  6 25  1  0
  7 26  1  0
  8 27  1  0
 11 28  1  0
 12 29  1  0
 21 30  1  0
 21 31  1  0
 21 32  1  0
M  ISO  8  22  14  23  14  24  14  25  14  26  14  27  14  28  14  29  14
M  ISO  3  30   8  31   8  32   8
M  END
>  <minimizedAffinity>  (1) 
-6.78554821

>  <minimizedRMSD>  (1) 
0.144553363

$$$$
