
     RDKit          3D

 36 39  0  0  0  0  0  0  0  0999 V2000
   47.2250   34.9110   42.1080 C   0  0  0  0  0  0  0  0  0  0  0  0
   48.2990   35.8110   42.2120 C   0  0  0  0  0  0  0  0  0  0  0  0
   49.1900   36.0940   41.2010 C   0  0  0  0  0  0  0  0  0  0  0  0
   49.0540   35.4720   39.9810 C   0  0  0  0  0  0  0  0  0  0  0  0
   48.0190   34.5820   39.8250 C   0  0  0  0  0  0  0  0  0  0  0  0
   47.8260   33.9530   38.6360 C   0  0  0  0  0  0  0  0  0  0  0  0
   46.8000   33.0690   38.4100 C   0  0  0  0  0  0  0  0  0  0  0  0
   45.9330   32.8280   39.4830 C   0  0  0  0  0  0  0  0  0  0  0  0
   46.1570   33.4830   40.6810 C   0  0  0  0  0  0  0  0  0  0  0  0
   47.1730   34.3510   40.8750 C   0  0  0  0  0  0  0  0  0  0  0  0
   44.6370   35.2540   44.7900 C   0  0  0  0  0  0  0  0  0  0  0  0
   45.3170   35.5540   43.6110 C   0  0  0  0  0  0  0  0  0  0  0  0
   46.4310   34.7660   43.2740 C   0  0  0  0  0  0  0  0  0  0  0  0
   46.7340   33.7770   44.1590 N   0  0  0  0  0  0  0  0  0  0  0  0
   46.0730   33.5100   45.2720 C   0  0  0  0  0  0  0  0  0  0  0  0
   45.0240   34.2610   45.5720 N   0  0  0  0  0  0  0  0  0  0  0  0
   46.6260   32.3530   46.0530 C   0  0  0  0  0  0  0  0  0  0  0  0
   45.6270   31.5120   46.4650 F   0  0  0  0  0  0  0  0  0  0  0  0
   47.3590   32.8250   47.1310 F   0  0  0  0  0  0  0  0  0  0  0  0
   47.5670   31.6830   45.2580 F   0  0  0  0  0  0  0  0  0  0  0  0
   45.1070   32.9860   41.5800 C   0  0  0  0  0  0  0  0  0  0  0  0
   45.3520   31.7040   42.1200 C   0  0  0  0  0  0  0  0  0  0  0  0
   44.3120   31.2760   42.9600 C   0  0  0  0  0  0  0  0  0  0  0  0
   43.4790   32.3280   42.8870 N   0  0  0  0  0  0  0  0  0  0  0  0
   43.9140   33.2980   42.1130 N   0  0  0  0  0  0  0  0  0  0  0  0
   48.4384   36.3281   43.1728 H   0  0  0  0  0  0  0  0  0  0  0  0
   50.0057   36.8130   41.3676 H   0  0  0  0  0  0  0  0  0  0  0  0
   49.7519   35.6808   39.1568 H   0  0  0  0  0  0  0  0  0  0  0  0
   48.5263   34.1624   37.8140 H   0  0  0  0  0  0  0  0  0  0  0  0
   46.6659   32.5754   37.4361 H   0  0  0  0  0  0  0  0  0  0  0  0
   45.0892   32.1306   39.3754 H   0  0  0  0  0  0  0  0  0  0  0  0
   43.7612   35.8553   45.0754 H   0  0  0  0  0  0  0  0  0  0  0  0
   44.9918   36.3821   42.9641 H   0  0  0  0  0  0  0  0  0  0  0  0
   46.2530   31.1101   41.9070 H   0  0  0  0  0  0  0  0  0  0  0  0
   44.2075   30.3371   43.5234 H   0  0  0  0  0  0  0  0  0  0  0  0
   42.5819   32.3706   43.3912 H   0  0  0  0  0  0  0  0  0  0  0  0
  1  2  2  0
  1 13  1  0
  3  2  1  0
  4  3  2  0
  5  4  1  0
  5 10  2  0
  6  5  1  0
  7  6  2  0
  7  8  1  0
  8  9  2  0
  9 10  1  0
  9 21  1  0
 10  1  1  0
 11 16  2  0
 12 11  1  0
 13 12  2  0
 13 14  1  0
 14 15  2  0
 15 16  1  0
 15 17  1  0
 17 18  1  0
 17 19  1  0
 20 17  1  0
 21 25  2  0
 21 22  1  0
 22 23  2  0
 24 23  1  0
 25 24  1  0
  2 26  1  0
  3 27  1  0
  4 28  1  0
  6 29  1  0
  7 30  1  0
  8 31  1  0
 11 32  1  0
 12 33  1  0
 22 34  1  0
 23 35  1  0
 24 36  1  0
M  ISO  8  26  14  27  14  28  14  29  14  30  14  31  14  32  14  33  14
M  ISO  3  34  14  35  14  36   9
M  END
>  <minimizedAffinity>  (1) 
-6.50218821

>  <minimizedRMSD>  (1) 
1.28881717

$$$$
