
     RDKit          3D

 36 39  0  0  0  0  0  0  0  0999 V2000
   47.1290   35.0600   41.9830 C   0  0  0  0  0  0  0  0  0  0  0  0
   48.2500   35.8760   42.1570 C   0  0  0  0  0  0  0  0  0  0  0  0
   49.2410   36.0670   41.2170 C   0  0  0  0  0  0  0  0  0  0  0  0
   49.1560   35.4250   40.0050 C   0  0  0  0  0  0  0  0  0  0  0  0
   48.0660   34.6060   39.7800 C   0  0  0  0  0  0  0  0  0  0  0  0
   47.9330   33.9600   38.5910 C   0  0  0  0  0  0  0  0  0  0  0  0
   46.8620   33.1450   38.3060 C   0  0  0  0  0  0  0  0  0  0  0  0
   45.8980   33.0060   39.3070 C   0  0  0  0  0  0  0  0  0  0  0  0
   46.0630   33.6710   40.4990 C   0  0  0  0  0  0  0  0  0  0  0  0
   47.1250   34.4660   40.7580 C   0  0  0  0  0  0  0  0  0  0  0  0
   44.3630   35.6600   44.4390 C   0  0  0  0  0  0  0  0  0  0  0  0
   45.1640   35.8640   43.3260 C   0  0  0  0  0  0  0  0  0  0  0  0
   46.2370   34.9990   43.0860 C   0  0  0  0  0  0  0  0  0  0  0  0
   46.4040   34.0000   44.0090 N   0  0  0  0  0  0  0  0  0  0  0  0
   45.6330   33.8160   45.0690 C   0  0  0  0  0  0  0  0  0  0  0  0
   44.6090   34.6610   45.2700 N   0  0  0  0  0  0  0  0  0  0  0  0
   46.0100   32.6510   45.9140 C   0  0  0  0  0  0  0  0  0  0  0  0
   45.3830   32.6760   47.1300 F   0  0  0  0  0  0  0  0  0  0  0  0
   47.3880   32.6120   46.0650 F   0  0  0  0  0  0  0  0  0  0  0  0
   45.6960   31.4690   45.2050 F   0  0  0  0  0  0  0  0  0  0  0  0
   44.8750   33.3570   41.3040 C   0  0  0  0  0  0  0  0  0  0  0  0
   44.4310   32.4740   42.2600 C   0  0  0  0  0  0  0  0  0  0  0  0
   43.1450   32.6450   42.5800 N   0  0  0  0  0  0  0  0  0  0  0  0
   42.7480   33.6680   41.8100 C   0  0  0  0  0  0  0  0  0  0  0  0
   43.7550   34.1120   41.0400 N   0  0  0  0  0  0  0  0  0  0  0  0
   48.3495   36.4059   43.1158 H   0  0  0  0  0  0  0  0  0  0  0  0
   50.0926   36.7280   41.4357 H   0  0  0  0  0  0  0  0  0  0  0  0
   49.9322   35.5590   39.2371 H   0  0  0  0  0  0  0  0  0  0  0  0
   48.7126   34.0944   37.8267 H   0  0  0  0  0  0  0  0  0  0  0  0
   46.7696   32.6290   37.3389 H   0  0  0  0  0  0  0  0  0  0  0  0
   45.0152   32.3705   39.1433 H   0  0  0  0  0  0  0  0  0  0  0  0
   43.5159   36.3346   44.6325 H   0  0  0  0  0  0  0  0  0  0  0  0
   44.9579   36.6976   42.6385 H   0  0  0  0  0  0  0  0  0  0  0  0
   45.0706   31.7038   42.7158 H   0  0  0  0  0  0  0  0  0  0  0  0
   42.5865   32.1126   43.2623 H   0  0  0  0  0  0  0  0  0  0  0  0
   41.7315   34.0884   41.8089 H   0  0  0  0  0  0  0  0  0  0  0  0
  1  2  2  0
  1 13  1  0
  3  2  1  0
  4  3  2  0
  5  4  1  0
  5 10  2  0
  6  5  1  0
  7  6  2  0
  7  8  1  0
  8  9  2  0
  9 10  1  0
  9 21  1  0
 10  1  1  0
 11 16  2  0
 12 11  1  0
 13 12  2  0
 13 14  1  0
 14 15  2  0
 15 16  1  0
 15 17  1  0
 17 19  1  0
 17 18  1  0
 20 17  1  0
 21 22  2  0
 22 23  1  0
 24 23  1  0
 25 21  1  0
 25 24  2  0
  2 26  1  0
  3 27  1  0
  4 28  1  0
  6 29  1  0
  7 30  1  0
  8 31  1  0
 11 32  1  0
 12 33  1  0
 22 34  1  0
 23 35  1  0
 24 36  1  0
M  ISO  8  26  14  27  14  28  14  29  14  30  14  31  14  32  14  33  14
M  ISO  3  34  14  35   9  36  14
M  END
>  <minimizedAffinity>  (1) 
-6.08372641

>  <minimizedRMSD>  (1) 
1.07512355

$$$$
