
     RDKit          3D

 32 34  0  0  0  0  0  0  0  0999 V2000
   46.4980   34.7170   42.2540 C   0  0  0  0  0  0  0  0  0  0  0  0
   47.7450   35.3100   42.1150 C   0  0  0  0  0  0  0  0  0  0  0  0
   48.5270   35.2250   40.9850 C   0  0  0  0  0  0  0  0  0  0  0  0
   48.0890   34.5210   39.9020 C   0  0  0  0  0  0  0  0  0  0  0  0
   46.8620   33.9120   39.9830 C   0  0  0  0  0  0  0  0  0  0  0  0
   46.3640   33.1890   38.9310 C   0  0  0  0  0  0  0  0  0  0  0  0
   45.1510   32.5620   38.9520 C   0  0  0  0  0  0  0  0  0  0  0  0
   44.4100   32.6880   40.1260 C   0  0  0  0  0  0  0  0  0  0  0  0
   44.9360   33.4240   41.1750 C   0  0  0  0  0  0  0  0  0  0  0  0
   46.1320   34.0330   41.1330 C   0  0  0  0  0  0  0  0  0  0  0  0
   44.4040   36.0080   45.0870 C   0  0  0  0  0  0  0  0  0  0  0  0
   44.9840   35.9650   43.8310 C   0  0  0  0  0  0  0  0  0  0  0  0
   45.8300   34.9120   43.4980 C   0  0  0  0  0  0  0  0  0  0  0  0
   46.0090   33.9850   44.4920 N   0  0  0  0  0  0  0  0  0  0  0  0
   45.4470   34.0440   45.6820 C   0  0  0  0  0  0  0  0  0  0  0  0
   44.6490   35.0570   45.9670 N   0  0  0  0  0  0  0  0  0  0  0  0
   45.8070   32.9040   46.5880 C   0  0  0  0  0  0  0  0  0  0  0  0
   44.9770   32.8200   47.6720 F   0  0  0  0  0  0  0  0  0  0  0  0
   47.1290   33.0010   46.9740 F   0  0  0  0  0  0  0  0  0  0  0  0
   45.7710   31.7040   45.8330 F   0  0  0  0  0  0  0  0  0  0  0  0
   44.8120   36.8970   42.8160 O   0  0  0  0  0  0  0  0  0  0  0  0
   44.0450   33.4490   42.2920 N   0  0  0  0  0  0  0  0  0  0  0  0
   48.1354   35.8875   42.9659 H   0  0  0  0  0  0  0  0  0  0  0  0
   49.5061   35.7254   40.9556 H   0  0  0  0  0  0  0  0  0  0  0  0
   48.7009   34.4438   38.9912 H   0  0  0  0  0  0  0  0  0  0  0  0
   46.9747   33.1092   38.0196 H   0  0  0  0  0  0  0  0  0  0  0  0
   44.7791   31.9890   38.0898 H   0  0  0  0  0  0  0  0  0  0  0  0
   43.4233   32.2106   40.2179 H   0  0  0  0  0  0  0  0  0  0  0  0
   43.7351   36.8399   45.3525 H   0  0  0  0  0  0  0  0  0  0  0  0
   45.2736   36.7752   41.9487 H   0  0  0  0  0  0  0  0  0  0  0  0
   44.3053   33.9609   43.1471 H   0  0  0  0  0  0  0  0  0  0  0  0
   43.1425   32.9552   42.2420 H   0  0  0  0  0  0  0  0  0  0  0  0
  1 13  1  0
  2  1  2  0
  3  2  1  0
  4  5  1  0
  4  3  2  0
  5 10  2  0
  6  7  2  0
  6  5  1  0
  7  8  1  0
  8  9  2  0
  9 22  1  0
 10  9  1  0
 10  1  1  0
 11 16  2  0
 12 11  1  0
 13 12  2  0
 13 14  1  0
 14 15  2  0
 15 16  1  0
 15 17  1  0
 17 19  1  0
 17 18  1  0
 20 17  1  0
 21 12  1  0
  2 23  1  0
  3 24  1  0
  4 25  1  0
  6 26  1  0
  7 27  1  0
  8 28  1  0
 11 29  1  0
 21 30  1  0
 22 31  1  0
 22 32  1  0
M  ISO  8  23  14  24  14  25  14  26  14  27  14  28  14  29  14  30   3
M  END
>  <minimizedAffinity>  (1) 
-7.1188693

>  <minimizedRMSD>  (1) 
0.238801241

$$$$
