
     RDKit          3D

 17 17  0  0  0  0  0  0  0  0999 V2000
   44.6860   35.5220   43.6070 C   0  0  0  0  0  0  0  0  0  0  0  0
   43.9350   35.4260   42.4090 C   0  0  0  0  0  0  0  0  0  0  0  0
   43.7820   34.1650   41.8310 C   0  0  0  0  0  0  0  0  0  0  0  0
   44.3580   33.1000   42.4410 N   0  0  0  0  0  0  0  0  0  0  0  0
   45.0740   33.2190   43.5900 C   0  0  0  0  0  0  0  0  0  0  0  0
   45.2240   34.4270   44.1500 N   0  0  0  0  0  0  0  0  0  0  0  0
   44.8480   36.8450   44.2190 C   0  0  0  0  0  0  0  0  0  0  0  0
   45.2430   37.8460   43.4450 C   0  0  0  0  0  0  0  0  0  0  0  0
   45.4310   39.2160   43.9940 C   0  0  0  0  0  0  0  0  0  0  0  0
   43.4862   36.3185   41.9486 H   0  0  0  0  0  0  0  0  0  0  0  0
   43.2072   34.0381   40.9017 H   0  0  0  0  0  0  0  0  0  0  0  0
   45.5264   32.3313   44.0562 H   0  0  0  0  0  0  0  0  0  0  0  0
   44.6476   37.0020   45.2891 H   0  0  0  0  0  0  0  0  0  0  0  0
   45.4352   37.6605   42.3779 H   0  0  0  0  0  0  0  0  0  0  0  0
   45.4253   39.1745   45.0932 H   0  0  0  0  0  0  0  0  0  0  0  0
   46.3932   39.6211   43.6473 H   0  0  0  0  0  0  0  0  0  0  0  0
   44.6135   39.8653   43.6473 H   0  0  0  0  0  0  0  0  0  0  0  0
  1  6  2  0
  1  7  1  0
  2  1  1  0
  3  2  2  0
  3  4  1  0
  4  5  2  0
  5  6  1  0
  8  9  1  0
  8  7  2  0
  2 10  1  0
  3 11  1  0
  5 12  1  0
  7 13  1  0
  8 14  1  0
  9 15  1  0
  9 16  1  0
  9 17  1  0
M  ISO  6  10  14  11  14  12  14  15   8  16   8  17   8
M  END
>  <minimizedAffinity>  (1) 
-2.41300726

>  <minimizedRMSD>  (1) 
1.97330117

$$$$
