
     RDKit          3D

 34 36  0  0  0  0  0  0  0  0999 V2000
   46.8930   34.1520   42.5000 C   0  0  0  0  0  0  0  0  0  0  0  0
   48.0400   34.9260   42.3670 C   0  0  0  0  0  0  0  0  0  0  0  0
   48.6690   35.1840   41.1670 C   0  0  0  0  0  0  0  0  0  0  0  0
   48.1690   34.6660   40.0070 C   0  0  0  0  0  0  0  0  0  0  0  0
   47.0310   33.8900   40.0790 C   0  0  0  0  0  0  0  0  0  0  0  0
   46.4730   33.3380   38.9550 C   0  0  0  0  0  0  0  0  0  0  0  0
   45.3470   32.5600   38.9710 C   0  0  0  0  0  0  0  0  0  0  0  0
   44.7680   32.3440   40.2170 C   0  0  0  0  0  0  0  0  0  0  0  0
   45.3540   32.9140   41.3330 C   0  0  0  0  0  0  0  0  0  0  0  0
   46.4600   33.6730   41.2930 C   0  0  0  0  0  0  0  0  0  0  0  0
   45.0770   34.5280   45.7620 C   0  0  0  0  0  0  0  0  0  0  0  0
   45.4790   34.8420   44.4660 C   0  0  0  0  0  0  0  0  0  0  0  0
   46.3810   33.9920   43.8220 C   0  0  0  0  0  0  0  0  0  0  0  0
   46.7940   32.9020   44.5510 N   0  0  0  0  0  0  0  0  0  0  0  0
   46.3890   32.6370   45.7810 C   0  0  0  0  0  0  0  0  0  0  0  0
   45.5360   33.4550   46.3700 N   0  0  0  0  0  0  0  0  0  0  0  0
   46.9850   31.3870   46.3600 C   0  0  0  0  0  0  0  0  0  0  0  0
   46.0210   30.4710   46.6970 F   0  0  0  0  0  0  0  0  0  0  0  0
   47.7920   31.6990   47.4350 F   0  0  0  0  0  0  0  0  0  0  0  0
   47.8850   30.8460   45.4120 F   0  0  0  0  0  0  0  0  0  0  0  0
   45.0260   36.0200   43.6950 C   0  0  0  0  0  0  0  0  0  0  0  0
   43.9020   35.6170   42.9620 F   0  0  0  0  0  0  0  0  0  0  0  0
   45.9550   36.4520   42.7680 F   0  0  0  0  0  0  0  0  0  0  0  0
   44.5800   37.0520   44.5100 F   0  0  0  0  0  0  0  0  0  0  0  0
   44.6230   32.5850   42.5150 N   0  0  0  0  0  0  0  0  0  0  0  0
   48.4746   35.3614   43.2789 H   0  0  0  0  0  0  0  0  0  0  0  0
   49.5747   35.8079   41.1445 H   0  0  0  0  0  0  0  0  0  0  0  0
   48.6598   34.8620   39.0423 H   0  0  0  0  0  0  0  0  0  0  0  0
   46.9572   33.5311   37.9863 H   0  0  0  0  0  0  0  0  0  0  0  0
   44.9242   32.1301   38.0510 H   0  0  0  0  0  0  0  0  0  0  0  0
   43.8600   31.7306   40.3134 H   0  0  0  0  0  0  0  0  0  0  0  0
   44.3665   35.1856   46.2842 H   0  0  0  0  0  0  0  0  0  0  0  0
   44.9376   32.9379   43.4301 H   0  0  0  0  0  0  0  0  0  0  0  0
   43.7812   31.9948   42.4524 H   0  0  0  0  0  0  0  0  0  0  0  0
  1 13  1  0
  2  1  2  0
  3  2  1  0
  4  5  1  0
  4  3  2  0
  5 10  2  0
  6  7  2  0
  6  5  1  0
  7  8  1  0
  8  9  2  0
  9 25  1  0
 10  9  1  0
 10  1  1  0
 11 16  2  0
 12 11  1  0
 13 12  2  0
 13 14  1  0
 14 15  2  0
 15 17  1  0
 15 16  1  0
 17 18  1  0
 17 19  1  0
 20 17  1  0
 21 12  1  0
 21 24  1  0
 22 21  1  0
 23 21  1  0
  2 26  1  0
  3 27  1  0
  4 28  1  0
  6 29  1  0
  7 30  1  0
  8 31  1  0
 11 32  1  0
 25 33  1  0
 25 34  1  0
M  ISO  7  26  14  27  14  28  14  29  14  30  14  31  14  32  14
M  END
>  <minimizedAffinity>  (1) 
-6.57844591

>  <minimizedRMSD>  (1) 
1.41640961

$$$$
