
     RDKit          3D

 39 41  0  0  0  0  0  0  0  0999 V2000
   44.6420   35.1250   45.2760 C   0  0  0  0  0  0  0  0  0  0  0  0
   45.1630   35.2070   43.9920 C   0  0  0  0  0  0  0  0  0  0  0  0
   46.2010   34.3640   43.6200 C   0  0  0  0  0  0  0  0  0  0  0  0
   46.6090   33.5120   44.6030 N   0  0  0  0  0  0  0  0  0  0  0  0
   46.1120   33.4390   45.8160 C   0  0  0  0  0  0  0  0  0  0  0  0
   45.1270   34.2540   46.1380 N   0  0  0  0  0  0  0  0  0  0  0  0
   46.8400   34.3200   42.3470 C   0  0  0  0  0  0  0  0  0  0  0  0
   47.8580   35.2360   42.1270 C   0  0  0  0  0  0  0  0  0  0  0  0
   48.5840   35.3350   40.9560 C   0  0  0  0  0  0  0  0  0  0  0  0
   48.3220   34.5050   39.9250 C   0  0  0  0  0  0  0  0  0  0  0  0
   47.3220   33.5650   40.0690 C   0  0  0  0  0  0  0  0  0  0  0  0
   47.0020   32.6960   39.0710 C   0  0  0  0  0  0  0  0  0  0  0  0
   46.0170   31.7500   39.1720 C   0  0  0  0  0  0  0  0  0  0  0  0
   45.3230   31.7060   40.3820 C   0  0  0  0  0  0  0  0  0  0  0  0
   45.6660   32.6020   41.3880 C   0  0  0  0  0  0  0  0  0  0  0  0
   46.6330   33.5160   41.2620 C   0  0  0  0  0  0  0  0  0  0  0  0
   44.8490   32.4110   42.5410 N   0  0  0  0  0  0  0  0  0  0  0  0
   46.7560   32.4020   46.6900 C   0  0  0  0  0  0  0  0  0  0  0  0
   45.8180   31.6340   47.3210 F   0  0  0  0  0  0  0  0  0  0  0  0
   47.5970   33.0040   47.6080 F   0  0  0  0  0  0  0  0  0  0  0  0
   47.6220   31.6150   45.9020 F   0  0  0  0  0  0  0  0  0  0  0  0
   44.6920   36.1380   42.9560 C   0  0  0  0  0  0  0  0  0  0  0  0
   43.4500   35.7230   42.2500 C   0  0  0  0  0  0  0  0  0  0  0  0
   43.8170   35.5950   40.8240 N   0  0  0  0  0  0  0  0  0  0  0  0
   43.8194   35.7910   45.5758 H   0  0  0  0  0  0  0  0  0  0  0  0
   48.1045   35.9324   42.9421 H   0  0  0  0  0  0  0  0  0  0  0  0
   49.3770   36.0917   40.8639 H   0  0  0  0  0  0  0  0  0  0  0  0
   48.8942   34.5762   38.9882 H   0  0  0  0  0  0  0  0  0  0  0  0
   47.5672   32.7573   38.1293 H   0  0  0  0  0  0  0  0  0  0  0  0
   45.7856   31.0627   38.3450 H   0  0  0  0  0  0  0  0  0  0  0  0
   44.5170   30.9737   40.5373 H   0  0  0  0  0  0  0  0  0  0  0  0
   44.9852   33.0033   43.3726 H   0  0  0  0  0  0  0  0  0  0  0  0
   44.1227   31.6807   42.5423 H   0  0  0  0  0  0  0  0  0  0  0  0
   44.5035   37.1111   43.4330 H   0  0  0  0  0  0  0  0  0  0  0  0
   45.4822   36.1697   42.1914 H   0  0  0  0  0  0  0  0  0  0  0  0
   43.0919   34.7591   42.6407 H   0  0  0  0  0  0  0  0  0  0  0  0
   42.6405   36.4537   42.3943 H   0  0  0  0  0  0  0  0  0  0  0  0
   44.7869   35.2567   40.7481 H   0  0  0  0  0  0  0  0  0  0  0  0
   43.1830   34.9255   40.3651 H   0  0  0  0  0  0  0  0  0  0  0  0
  1  6  2  0
  2  1  1  0
  3  2  2  0
  3  4  1  0
  4  5  2  0
  5  6  1  0
  5 18  1  0
  7  3  1  0
  8  7  2  0
  9  8  1  0
 10 11  1  0
 10  9  2  0
 11 16  2  0
 12 13  2  0
 12 11  1  0
 13 14  1  0
 14 15  2  0
 15 17  1  0
 16 15  1  0
 16  7  1  0
 18 19  1  0
 18 20  1  0
 21 18  1  0
 22  2  1  0
 23 22  1  0
 24 23  1  0
  1 25  1  0
  8 26  1  0
  9 27  1  0
 10 28  1  0
 12 29  1  0
 13 30  1  0
 14 31  1  0
 17 32  1  0
 17 33  1  0
 22 34  1  0
 22 35  1  0
 23 36  1  0
 23 37  1  0
 24 38  1  0
 24 39  1  0
M  ISO  8  25  14  26  14  27  14  28  14  29  14  30  14  31  14  34   8
M  ISO  5  35   8  36   8  37   8  38   5  39   5
M  END
>  <minimizedAffinity>  (1) 
-6.11284828

>  <minimizedRMSD>  (1) 
0.385004073

$$$$
