
     RDKit          3D

 43 45  0  0  0  0  0  0  0  0999 V2000
   44.6500   35.2700   45.1880 C   0  0  0  0  0  0  0  0  0  0  0  0
   45.2220   35.4030   43.9250 C   0  0  0  0  0  0  0  0  0  0  0  0
   46.2430   34.5270   43.5480 C   0  0  0  0  0  0  0  0  0  0  0  0
   46.5680   33.6140   44.4930 N   0  0  0  0  0  0  0  0  0  0  0  0
   46.0240   33.4960   45.6760 C   0  0  0  0  0  0  0  0  0  0  0  0
   45.0690   34.3300   46.0070 N   0  0  0  0  0  0  0  0  0  0  0  0
   46.9250   34.5300   42.3030 C   0  0  0  0  0  0  0  0  0  0  0  0
   47.9720   35.4390   42.1710 C   0  0  0  0  0  0  0  0  0  0  0  0
   48.7440   35.5840   41.0380 C   0  0  0  0  0  0  0  0  0  0  0  0
   48.5050   34.8110   39.9540 C   0  0  0  0  0  0  0  0  0  0  0  0
   47.4850   33.8910   40.0160 C   0  0  0  0  0  0  0  0  0  0  0  0
   47.1880   33.0810   38.9600 C   0  0  0  0  0  0  0  0  0  0  0  0
   46.1880   32.1590   38.9790 C   0  0  0  0  0  0  0  0  0  0  0  0
   45.4350   32.0560   40.1610 C   0  0  0  0  0  0  0  0  0  0  0  0
   45.7660   32.8960   41.2120 C   0  0  0  0  0  0  0  0  0  0  0  0
   46.7450   33.7910   41.1810 C   0  0  0  0  0  0  0  0  0  0  0  0
   44.8810   32.6590   42.3190 N   0  0  0  0  0  0  0  0  0  0  0  0
   46.5920   32.3840   46.5100 C   0  0  0  0  0  0  0  0  0  0  0  0
   45.5950   31.6220   47.0730 F   0  0  0  0  0  0  0  0  0  0  0  0
   47.4260   32.8770   47.4760 F   0  0  0  0  0  0  0  0  0  0  0  0
   47.4230   31.5790   45.7000 F   0  0  0  0  0  0  0  0  0  0  0  0
   44.8390   36.4000   42.9350 C   0  0  0  0  0  0  0  0  0  0  0  0
   43.9910   35.9360   41.8270 C   0  0  0  0  0  0  0  0  0  0  0  0
   41.6570   34.9920   41.5850 C   0  0  0  0  0  0  0  0  0  0  0  0
   41.8600   34.9250   40.3200 O   0  0  0  0  0  0  0  0  0  0  0  0
   42.7100   35.4660   42.4310 N   0  0  0  0  0  0  0  0  0  0  0  0
   40.4140   34.6030   42.1130 N   0  0  0  0  0  0  0  0  0  0  0  0
   43.8462   35.9525   45.5011 H   0  0  0  0  0  0  0  0  0  0  0  0
   48.1988   36.0865   43.0309 H   0  0  0  0  0  0  0  0  0  0  0  0
   49.5539   36.3280   41.0155 H   0  0  0  0  0  0  0  0  0  0  0  0
   49.1130   34.9160   39.0433 H   0  0  0  0  0  0  0  0  0  0  0  0
   47.7891   33.1783   38.0439 H   0  0  0  0  0  0  0  0  0  0  0  0
   45.9780   31.5219   38.1072 H   0  0  0  0  0  0  0  0  0  0  0  0
   44.6107   31.3330   40.2489 H   0  0  0  0  0  0  0  0  0  0  0  0
   44.9870   33.2012   43.1883 H   0  0  0  0  0  0  0  0  0  0  0  0
   44.1407   31.9469   42.2432 H   0  0  0  0  0  0  0  0  0  0  0  0
   44.2949   37.1992   43.4596 H   0  0  0  0  0  0  0  0  0  0  0  0
   45.7811   36.7189   42.4652 H   0  0  0  0  0  0  0  0  0  0  0  0
   44.4837   35.1097   41.2936 H   0  0  0  0  0  0  0  0  0  0  0  0
   43.8122   36.7439   41.1022 H   0  0  0  0  0  0  0  0  0  0  0  0
   42.5839   35.4826   43.4531 H   0  0  0  0  0  0  0  0  0  0  0  0
   39.6708   34.2650   41.4851 H   0  0  0  0  0  0  0  0  0  0  0  0
   40.2463   34.6559   43.1279 H   0  0  0  0  0  0  0  0  0  0  0  0
  1  6  2  0
  2  1  1  0
  3  2  2  0
  3  4  1  0
  4  5  2  0
  5  6  1  0
  5 18  1  0
  7  3  1  0
  8  7  2  0
  9  8  1  0
 10 11  1  0
 10  9  2  0
 11 16  2  0
 12 13  2  0
 12 11  1  0
 13 14  1  0
 14 15  2  0
 15 17  1  0
 16 15  1  0
 16  7  1  0
 18 19  1  0
 18 20  1  0
 21 18  1  0
 22  2  1  0
 23 26  1  0
 23 22  1  0
 24 27  1  0
 24 26  1  0
 25 24  2  0
  1 28  1  0
  8 29  1  0
  9 30  1  0
 10 31  1  0
 12 32  1  0
 13 33  1  0
 14 34  1  0
 17 35  1  0
 17 36  1  0
 22 37  1  0
 22 38  1  0
 23 39  1  0
 23 40  1  0
 26 41  1  0
 27 42  1  0
 27 43  1  0
M  ISO  8  28  14  29  14  30  14  31  14  32  14  33  14  34  14  37   8
M  ISO  3  38   8  39   8  40   8
M  END
>  <minimizedAffinity>  (1) 
-7.16586161

>  <minimizedRMSD>  (1) 
0.253980845

$$$$
