
     RDKit          3D

 24 25  0  0  0  0  0  0  0  0999 V2000
   45.3050   34.4850   45.0770 C   0  0  0  0  0  0  0  0  0  0  0  0
   44.4630   35.1840   44.2100 C   0  0  0  0  0  0  0  0  0  0  0  0
   44.9030   35.4010   42.9130 C   0  0  0  0  0  0  0  0  0  0  0  0
   46.1210   34.9260   42.5520 N   0  0  0  0  0  0  0  0  0  0  0  0
   46.9250   34.2460   43.4190 C   0  0  0  0  0  0  0  0  0  0  0  0
   46.5080   34.0310   44.6740 N   0  0  0  0  0  0  0  0  0  0  0  0
   42.9680   35.5730   41.3180 C   0  0  0  0  0  0  0  0  0  0  0  0
   42.6140   34.3820   41.5830 O   0  0  0  0  0  0  0  0  0  0  0  0
   44.1070   36.1030   41.9690 N   0  0  0  0  0  0  0  0  0  0  0  0
   47.0650   31.3240   42.8440 Cl  0  0  0  0  0  0  0  0  0  0  0  0
   48.3860   32.4310   42.6770 C   0  0  0  0  0  0  0  0  0  0  0  0
   48.2320   33.7580   42.9630 C   0  0  0  0  0  0  0  0  0  0  0  0
   49.2820   34.6760   42.8370 C   0  0  0  0  0  0  0  0  0  0  0  0
   50.4840   34.1590   42.4060 C   0  0  0  0  0  0  0  0  0  0  0  0
   50.6470   32.8380   42.1170 C   0  0  0  0  0  0  0  0  0  0  0  0
   49.6130   31.9630   42.2460 C   0  0  0  0  0  0  0  0  0  0  0  0
   44.9793   34.3009   46.1114 H   0  0  0  0  0  0  0  0  0  0  0  0
   43.4817   35.5510   44.5451 H   0  0  0  0  0  0  0  0  0  0  0  0
   42.4005   36.1799   40.5971 H   0  0  0  0  0  0  0  0  0  0  0  0
   44.3792   37.0700   41.7414 H   0  0  0  0  0  0  0  0  0  0  0  0
   49.1549   35.7439   43.0679 H   0  0  0  0  0  0  0  0  0  0  0  0
   51.3425   34.8371   42.2912 H   0  0  0  0  0  0  0  0  0  0  0  0
   51.6270   32.4739   41.7750 H   0  0  0  0  0  0  0  0  0  0  0  0
   49.7517   30.8975   42.0104 H   0  0  0  0  0  0  0  0  0  0  0  0
  2  1  2  0
  3  2  1  0
  4  3  2  0
  4  5  1  0
  5  6  2  0
  6  1  1  0
  7  8  2  0
  7  9  1  0
  9  3  1  0
 11 10  1  0
 11 12  2  0
 12  5  1  0
 13 12  1  0
 14 13  2  0
 15 16  2  0
 15 14  1  0
 16 11  1  0
  1 17  1  0
  2 18  1  0
  7 19  1  0
  9 20  1  0
 13 21  1  0
 14 22  1  0
 15 23  1  0
 16 24  1  0
M  ISO  7  17  14  18  14  19   6  21  14  22  14  23  14  24  14
M  END
>  <minimizedAffinity>  (1) 
-4.91758537

>  <minimizedRMSD>  (1) 
2.63035464

$$$$
