
     RDKit          3D

 22 23  0  0  0  0  0  0  0  0999 V2000
   44.6220   36.1940   43.9770 C   0  0  0  0  0  0  0  0  0  0  0  0
   44.8180   35.3800   45.0980 C   0  0  0  0  0  0  0  0  0  0  0  0
   45.5290   34.2050   44.9280 C   0  0  0  0  0  0  0  0  0  0  0  0
   46.0070   33.8870   43.6940 N   0  0  0  0  0  0  0  0  0  0  0  0
   45.8060   34.6860   42.6270 C   0  0  0  0  0  0  0  0  0  0  0  0
   45.1160   35.8320   42.7810 N   0  0  0  0  0  0  0  0  0  0  0  0
   48.5430   35.6940   42.0110 Cl  0  0  0  0  0  0  0  0  0  0  0  0
   47.5860   34.7230   40.9380 C   0  0  0  0  0  0  0  0  0  0  0  0
   46.3370   34.3100   41.3150 C   0  0  0  0  0  0  0  0  0  0  0  0
   45.5390   33.5250   40.4710 C   0  0  0  0  0  0  0  0  0  0  0  0
   46.0800   33.1960   39.2470 C   0  0  0  0  0  0  0  0  0  0  0  0
   47.3280   33.6120   38.8760 C   0  0  0  0  0  0  0  0  0  0  0  0
   48.0900   34.3740   39.7080 C   0  0  0  0  0  0  0  0  0  0  0  0
   45.7540   33.3330   46.0640 C   0  0  0  0  0  0  0  0  0  0  0  0
   46.9090   32.9190   46.3380 O   0  0  0  0  0  0  0  0  0  0  0  0
   44.0607   37.1349   44.0753 H   0  0  0  0  0  0  0  0  0  0  0  0
   44.4197   35.6649   46.0830 H   0  0  0  0  0  0  0  0  0  0  0  0
   44.5349   33.1897   40.7698 H   0  0  0  0  0  0  0  0  0  0  0  0
   45.4914   32.5819   38.5496 H   0  0  0  0  0  0  0  0  0  0  0  0
   47.7229   33.3267   37.8898 H   0  0  0  0  0  0  0  0  0  0  0  0
   49.0930   34.7050   39.4007 H   0  0  0  0  0  0  0  0  0  0  0  0
   44.9043   33.0301   46.6935 H   0  0  0  0  0  0  0  0  0  0  0  0
  1  2  2  0
  3  2  1  0
  3 14  1  0
  4  3  2  0
  5  6  2  0
  5  4  1  0
  6  1  1  0
  8  9  2  0
  8  7  1  0
  9  5  1  0
 10  9  1  0
 11 10  2  0
 12 11  1  0
 12 13  2  0
 13  8  1  0
 14 15  2  0
  1 16  1  0
  2 17  1  0
 10 18  1  0
 11 19  1  0
 12 20  1  0
 13 21  1  0
 14 22  1  0
M  ISO  7  16  14  17  14  18  14  19  14  20  14  21  14  22   6
M  END
>  <minimizedAffinity>  (1) 
-4.78722

>  <minimizedRMSD>  (1) 
2.97340965

$$$$
