
     RDKit          3D

 21 21  0  0  0  0  0  0  0  0999 V2000
   44.8950   37.1920   44.3050 C   0  0  0  0  0  0  0  0  0  0  0  0
   45.3430   38.1830   43.5670 C   0  0  0  0  0  0  0  0  0  0  0  0
   44.8500   35.8540   43.7250 C   0  0  0  0  0  0  0  0  0  0  0  0
   44.4030   35.7030   42.3980 C   0  0  0  0  0  0  0  0  0  0  0  0
   44.3620   34.4200   41.8430 C   0  0  0  0  0  0  0  0  0  0  0  0
   44.7550   33.3810   42.6040 N   0  0  0  0  0  0  0  0  0  0  0  0
   45.1850   33.5530   43.8860 C   0  0  0  0  0  0  0  0  0  0  0  0
   45.2280   34.7700   44.4250 N   0  0  0  0  0  0  0  0  0  0  0  0
   45.4260   39.5700   44.0710 C   0  0  0  0  0  0  0  0  0  0  0  0
   44.7340   40.7720   45.9230 C   0  0  0  0  0  0  0  0  0  0  0  0
   44.3540   41.8670   45.3920 O   0  0  0  0  0  0  0  0  0  0  0  0
   45.2850   39.5140   45.5130 N   0  0  0  0  0  0  0  0  0  0  0  0
   44.5610   37.3677   45.3382 H   0  0  0  0  0  0  0  0  0  0  0  0
   45.6678   37.9726   42.5373 H   0  0  0  0  0  0  0  0  0  0  0  0
   44.0918   36.5782   41.8089 H   0  0  0  0  0  0  0  0  0  0  0  0
   44.0172   34.2635   40.8102 H   0  0  0  0  0  0  0  0  0  0  0  0
   45.4984   32.6812   44.4790 H   0  0  0  0  0  0  0  0  0  0  0  0
   46.3985   40.0097   43.8047 H   0  0  0  0  0  0  0  0  0  0  0  0
   44.6365   40.1938   43.6265 H   0  0  0  0  0  0  0  0  0  0  0  0
   44.5998   40.8012   47.0144 H   0  0  0  0  0  0  0  0  0  0  0  0
   45.5329   38.7231   46.1245 H   0  0  0  0  0  0  0  0  0  0  0  0
  2  9  1  0
  2  1  2  0
  3  1  1  0
  3  8  2  0
  4  3  1  0
  5  4  2  0
  5  6  1  0
  6  7  2  0
  7  8  1  0
  9 12  1  0
 11 10  2  0
 12 10  1  0
  1 13  1  0
  2 14  1  0
  4 15  1  0
  5 16  1  0
  7 17  1  0
  9 18  1  0
  9 19  1  0
 10 20  1  0
 12 21  1  0
M  ISO  6  15  14  16  14  17  14  18   8  19   8  20   6
M  END
>  <minimizedAffinity>  (1) 
-3.53332853

>  <minimizedRMSD>  (1) 
0.761795878

$$$$
