
     RDKit          3D

 34 37  0  0  0  0  0  0  0  0999 V2000
   45.1380   33.0860   38.7510 Cl  0  0  0  0  0  0  0  0  0  0  0  0
   45.8110   33.8760   40.1360 C   0  0  0  0  0  0  0  0  0  0  0  0
   45.0100   34.2280   41.2050 C   0  0  0  0  0  0  0  0  0  0  0  0
   45.5100   34.8610   42.3310 C   0  0  0  0  0  0  0  0  0  0  0  0
   46.8660   35.1290   42.3350 C   0  0  0  0  0  0  0  0  0  0  0  0
   47.6740   34.7840   41.2770 C   0  0  0  0  0  0  0  0  0  0  0  0
   47.1600   34.1680   40.1960 C   0  0  0  0  0  0  0  0  0  0  0  0
   47.9600   33.7850   39.0610 N   0  0  0  0  0  0  0  0  0  0  0  0
   48.2260   34.3690   37.8760 C   0  0  0  0  0  0  0  0  0  0  0  0
   49.0510   33.5550   37.1820 N   0  0  0  0  0  0  0  0  0  0  0  0
   49.2980   32.4620   37.9370 C   0  0  0  0  0  0  0  0  0  0  0  0
   50.0760   31.3530   37.6710 C   0  0  0  0  0  0  0  0  0  0  0  0
   50.1570   30.3800   38.6180 N   0  0  0  0  0  0  0  0  0  0  0  0
   49.4890   30.5030   39.7890 C   0  0  0  0  0  0  0  0  0  0  0  0
   48.7310   31.5880   40.0460 N   0  0  0  0  0  0  0  0  0  0  0  0
   48.6130   32.5900   39.1370 C   0  0  0  0  0  0  0  0  0  0  0  0
   41.7990   32.4330   41.4540 C   0  0  0  0  0  0  0  0  0  0  0  0
   40.8750   33.3960   41.0180 C   0  0  0  0  0  0  0  0  0  0  0  0
   41.3650   34.6440   40.6450 C   0  0  0  0  0  0  0  0  0  0  0  0
   42.7000   34.8860   40.7160 N   0  0  0  0  0  0  0  0  0  0  0  0
   43.5730   33.9180   41.1470 C   0  0  0  0  0  0  0  0  0  0  0  0
   43.1160   32.7110   41.5090 N   0  0  0  0  0  0  0  0  0  0  0  0
   40.4710   35.7600   40.1610 C   0  0  0  0  0  0  0  0  0  0  0  0
   40.4710   36.7990   41.0500 F   0  0  0  0  0  0  0  0  0  0  0  0
   40.9560   36.2080   38.9470 F   0  0  0  0  0  0  0  0  0  0  0  0
   39.2180   35.2220   39.9930 F   0  0  0  0  0  0  0  0  0  0  0  0
   44.8626   35.1357   43.1768 H   0  0  0  0  0  0  0  0  0  0  0  0
   47.3103   35.6312   43.2070 H   0  0  0  0  0  0  0  0  0  0  0  0
   48.7492   35.0133   41.3144 H   0  0  0  0  0  0  0  0  0  0  0  0
   47.8386   35.3399   37.5334 H   0  0  0  0  0  0  0  0  0  0  0  0
   50.6165   31.2587   36.7176 H   0  0  0  0  0  0  0  0  0  0  0  0
   49.5658   29.7053   40.5426 H   0  0  0  0  0  0  0  0  0  0  0  0
   41.4423   31.4369   41.7551 H   0  0  0  0  0  0  0  0  0  0  0  0
   39.7991   33.1714   40.9727 H   0  0  0  0  0  0  0  0  0  0  0  0
  1  2  1  0
  2  7  2  0
  2  3  1  0
  3  4  2  0
  4  5  1  0
  6  5  2  0
  7  6  1  0
  8 16  1  0
  8  7  1  0
  9  8  1  0
 10  9  2  0
 10 11  1  0
 11 16  2  0
 12 11  1  0
 12 13  2  0
 13 14  1  0
 14 15  2  0
 16 15  1  0
 17 22  2  0
 18 17  1  0
 19 20  1  0
 19 18  2  0
 20 21  2  0
 21  3  1  0
 21 22  1  0
 23 19  1  0
 23 24  1  0
 25 23  1  0
 26 23  1  0
  4 27  1  0
  5 28  1  0
  6 29  1  0
  9 30  1  0
 12 31  1  0
 14 32  1  0
 17 33  1  0
 18 34  1  0
M  ISO  8  27  14  28  14  29  14  30  14  31  14  32  14  33  14  34  14
M  END
>  <minimizedAffinity>  (1) 
-6.41904402

>  <minimizedRMSD>  (1) 
5.34163713

$$$$
