
     RDKit          3D

 29 30  0  0  0  0  0  0  0  0999 V2000
   45.3910   32.2880   40.3410 Cl  0  0  0  0  0  0  0  0  0  0  0  0
   46.6840   33.3520   39.9200 C   0  0  0  0  0  0  0  0  0  0  0  0
   47.3120   34.1110   40.8680 C   0  0  0  0  0  0  0  0  0  0  0  0
   48.3570   34.9790   40.5430 C   0  0  0  0  0  0  0  0  0  0  0  0
   48.7270   35.0370   39.2270 C   0  0  0  0  0  0  0  0  0  0  0  0
   48.0890   34.2650   38.2670 C   0  0  0  0  0  0  0  0  0  0  0  0
   47.0640   33.4180   38.6060 C   0  0  0  0  0  0  0  0  0  0  0  0
   46.9760   32.9270   44.3430 C   0  0  0  0  0  0  0  0  0  0  0  0
   46.0480   33.8370   44.8820 C   0  0  0  0  0  0  0  0  0  0  0  0
   45.5590   34.8330   44.0510 C   0  0  0  0  0  0  0  0  0  0  0  0
   45.9840   34.8980   42.7610 N   0  0  0  0  0  0  0  0  0  0  0  0
   46.8800   34.0100   42.2580 C   0  0  0  0  0  0  0  0  0  0  0  0
   47.3700   33.0280   43.0580 N   0  0  0  0  0  0  0  0  0  0  0  0
   44.5670   35.8580   44.5140 C   0  0  0  0  0  0  0  0  0  0  0  0
   45.0330   37.1270   44.2780 F   0  0  0  0  0  0  0  0  0  0  0  0
   43.3880   35.6850   43.8070 F   0  0  0  0  0  0  0  0  0  0  0  0
   44.3480   35.6410   45.8470 F   0  0  0  0  0  0  0  0  0  0  0  0
   46.6070   32.7760   37.4940 O   0  0  0  0  0  0  0  0  0  0  0  0
   44.3040   31.6660   36.9470 O   0  0  0  0  0  0  0  0  0  0  0  0
   45.0880   32.9460   36.7620 P   0  0  0  0  0  0  0  0  0  0  0  0
   45.2350   33.1530   35.0810 O   0  0  0  0  0  0  0  0  0  0  0  0
   44.1650   34.2050   37.4290 O   0  0  0  0  0  0  0  0  0  0  0  0
   48.8591   35.5876   41.3094 H   0  0  0  0  0  0  0  0  0  0  0  0
   49.5449   35.7077   38.9248 H   0  0  0  0  0  0  0  0  0  0  0  0
   48.4100   34.3330   37.2171 H   0  0  0  0  0  0  0  0  0  0  0  0
   47.3838   32.1255   44.9764 H   0  0  0  0  0  0  0  0  0  0  0  0
   45.7209   33.7605   45.9295 H   0  0  0  0  0  0  0  0  0  0  0  0
   45.7979   33.9457   34.8941 H   0  0  0  0  0  0  0  0  0  0  0  0
   44.2024   34.1540   38.4170 H   0  0  0  0  0  0  0  0  0  0  0  0
  2  1  1  0
  2  3  2  0
  3 12  1  0
  4  3  1  0
  5  4  2  0
  6  7  2  0
  6  5  1  0
  7  2  1  0
  8  9  2  0
 10 14  1  0
 10  9  1  0
 11 10  2  0
 12 11  1  0
 12 13  2  0
 13  8  1  0
 14 17  1  0
 15 14  1  0
 16 14  1  0
 18  7  1  0
 20 19  2  0
 20 22  1  0
 20 18  1  0
 21 20  1  0
  4 23  1  0
  5 24  1  0
  6 25  1  0
  8 26  1  0
  9 27  1  0
 21 28  1  0
 22 29  1  0
M  ISO  7  23  14  24  14  25  14  26  14  27  14  28   3  29   3
M  END
>  <minimizedAffinity>  (1) 
-5.88493061

>  <minimizedRMSD>  (1) 
1.35605311

$$$$
