
     RDKit          3D

 38 40  0  0  0  0  0  0  0  0999 V2000
   45.6220   32.2310   40.5700 Cl  0  0  0  0  0  0  0  0  0  0  0  0
   46.8570   33.3890   40.1970 C   0  0  0  0  0  0  0  0  0  0  0  0
   47.3960   34.1830   41.1790 C   0  0  0  0  0  0  0  0  0  0  0  0
   48.3950   35.1310   40.9220 C   0  0  0  0  0  0  0  0  0  0  0  0
   48.8020   35.2140   39.6030 C   0  0  0  0  0  0  0  0  0  0  0  0
   48.2670   34.4240   38.6150 C   0  0  0  0  0  0  0  0  0  0  0  0
   47.2990   33.5160   38.9060 C   0  0  0  0  0  0  0  0  0  0  0  0
   46.9100   32.9030   44.6070 C   0  0  0  0  0  0  0  0  0  0  0  0
   45.9690   33.8050   45.1430 C   0  0  0  0  0  0  0  0  0  0  0  0
   45.5250   34.8340   44.3100 C   0  0  0  0  0  0  0  0  0  0  0  0
   46.0010   34.9310   43.0380 N   0  0  0  0  0  0  0  0  0  0  0  0
   46.9120   34.0360   42.5580 C   0  0  0  0  0  0  0  0  0  0  0  0
   47.3550   33.0350   43.3450 N   0  0  0  0  0  0  0  0  0  0  0  0
   44.5230   35.8580   44.7670 C   0  0  0  0  0  0  0  0  0  0  0  0
   44.9870   37.1330   44.5370 F   0  0  0  0  0  0  0  0  0  0  0  0
   43.3430   35.6730   44.0550 F   0  0  0  0  0  0  0  0  0  0  0  0
   44.3020   35.6290   46.1070 F   0  0  0  0  0  0  0  0  0  0  0  0
   46.7940   32.7320   37.8210 N   0  0  0  0  0  0  0  0  0  0  0  0
   47.4220   31.4740   37.4690 C   0  0  0  0  0  0  0  0  0  0  0  0
   46.4510   30.3500   37.3150 C   0  0  0  0  0  0  0  0  0  0  0  0
   45.0500   30.8280   36.9970 C   0  0  0  0  0  0  0  0  0  0  0  0
   45.0510   32.1170   36.2350 C   0  0  0  0  0  0  0  0  0  0  0  0
   45.6420   33.2070   37.0720 C   0  0  0  0  0  0  0  0  0  0  0  0
   48.8247   35.7638   41.7125 H   0  0  0  0  0  0  0  0  0  0  0  0
   49.5837   35.9401   39.3350 H   0  0  0  0  0  0  0  0  0  0  0  0
   48.6250   34.5272   37.5800 H   0  0  0  0  0  0  0  0  0  0  0  0
   47.2861   32.0785   45.2305 H   0  0  0  0  0  0  0  0  0  0  0  0
   45.5999   33.7027   46.1742 H   0  0  0  0  0  0  0  0  0  0  0  0
   47.9571   31.6056   36.5170 H   0  0  0  0  0  0  0  0  0  0  0  0
   48.1000   31.2073   38.2931 H   0  0  0  0  0  0  0  0  0  0  0  0
   46.7942   29.6978   36.4984 H   0  0  0  0  0  0  0  0  0  0  0  0
   46.4093   29.8130   38.2741 H   0  0  0  0  0  0  0  0  0  0  0  0
   44.5423   30.0606   36.3942 H   0  0  0  0  0  0  0  0  0  0  0  0
   44.5275   30.9995   37.9497 H   0  0  0  0  0  0  0  0  0  0  0  0
   45.6475   31.9977   35.3185 H   0  0  0  0  0  0  0  0  0  0  0  0
   44.0158   32.3830   35.9750 H   0  0  0  0  0  0  0  0  0  0  0  0
   45.9565   34.0321   36.4160 H   0  0  0  0  0  0  0  0  0  0  0  0
   44.8791   33.5479   37.7874 H   0  0  0  0  0  0  0  0  0  0  0  0
  2  1  1  0
  2  3  2  0
  3 12  1  0
  4  3  1  0
  5  4  2  0
  6  7  2  0
  6  5  1  0
  7  2  1  0
  8  9  2  0
 10 14  1  0
 10  9  1  0
 11 10  2  0
 12 11  1  0
 12 13  2  0
 13  8  1  0
 14 17  1  0
 15 14  1  0
 16 14  1  0
 18  7  1  0
 19 18  1  0
 20 19  1  0
 21 20  1  0
 22 21  1  0
 22 23  1  0
 23 18  1  0
  4 24  1  0
  5 25  1  0
  6 26  1  0
  8 27  1  0
  9 28  1  0
 19 29  1  0
 19 30  1  0
 20 31  1  0
 20 32  1  0
 21 33  1  0
 21 34  1  0
 22 35  1  0
 22 36  1  0
 23 37  1  0
 23 38  1  0
M  ISO  8  24  14  25  14  26  14  27  14  28  14  29  13  30  13  31  13
M  ISO  7  32  13  33  13  34  13  35  13  36  13  37  13  38  13
M  END
>  <minimizedAffinity>  (1) 
-5.53241396

>  <minimizedRMSD>  (1) 
1.48692083

$$$$
