
     RDKit          3D

 35 37  0  0  0  0  0  0  0  0999 V2000
   45.6000   32.2020   40.6200 Cl  0  0  0  0  0  0  0  0  0  0  0  0
   46.8340   33.3550   40.2220 C   0  0  0  0  0  0  0  0  0  0  0  0
   47.3820   34.1690   41.1960 C   0  0  0  0  0  0  0  0  0  0  0  0
   48.3670   35.0960   40.9060 C   0  0  0  0  0  0  0  0  0  0  0  0
   48.7760   35.1730   39.6000 C   0  0  0  0  0  0  0  0  0  0  0  0
   48.2320   34.3650   38.6240 C   0  0  0  0  0  0  0  0  0  0  0  0
   47.2740   33.4680   38.9220 C   0  0  0  0  0  0  0  0  0  0  0  0
   46.9290   32.9110   44.6310 C   0  0  0  0  0  0  0  0  0  0  0  0
   45.9880   33.8100   45.1650 C   0  0  0  0  0  0  0  0  0  0  0  0
   45.5270   34.8300   44.3350 C   0  0  0  0  0  0  0  0  0  0  0  0
   45.9910   34.9200   43.0680 N   0  0  0  0  0  0  0  0  0  0  0  0
   46.9040   34.0380   42.5710 C   0  0  0  0  0  0  0  0  0  0  0  0
   47.3630   33.0400   43.3620 N   0  0  0  0  0  0  0  0  0  0  0  0
   44.5180   35.8550   44.7920 C   0  0  0  0  0  0  0  0  0  0  0  0
   44.9790   37.1320   44.5570 F   0  0  0  0  0  0  0  0  0  0  0  0
   43.3460   35.6710   44.0770 F   0  0  0  0  0  0  0  0  0  0  0  0
   44.3000   35.6340   46.1300 F   0  0  0  0  0  0  0  0  0  0  0  0
   46.6800   32.6030   37.9330 N   0  0  0  0  0  0  0  0  0  0  0  0
   46.8150   31.2420   37.4480 C   0  0  0  0  0  0  0  0  0  0  0  0
   46.6350   31.4420   35.9570 C   0  0  0  0  0  0  0  0  0  0  0  0
   45.4550   32.3840   35.9170 C   0  0  0  0  0  0  0  0  0  0  0  0
   45.6250   33.2170   37.1540 C   0  0  0  0  0  0  0  0  0  0  0  0
   48.8008   35.7398   41.6853 H   0  0  0  0  0  0  0  0  0  0  0  0
   49.5570   35.8968   39.3239 H   0  0  0  0  0  0  0  0  0  0  0  0
   48.5863   34.4549   37.5865 H   0  0  0  0  0  0  0  0  0  0  0  0
   47.3151   32.0930   45.2569 H   0  0  0  0  0  0  0  0  0  0  0  0
   45.6291   33.7114   46.2001 H   0  0  0  0  0  0  0  0  0  0  0  0
   47.8064   30.8270   37.6823 H   0  0  0  0  0  0  0  0  0  0  0  0
   46.1065   30.5303   37.8969 H   0  0  0  0  0  0  0  0  0  0  0  0
   47.5274   31.8970   35.5025 H   0  0  0  0  0  0  0  0  0  0  0  0
   46.4815   30.5085   35.3957 H   0  0  0  0  0  0  0  0  0  0  0  0
   45.4841   33.0116   35.0140 H   0  0  0  0  0  0  0  0  0  0  0  0
   44.4895   31.8579   35.8858 H   0  0  0  0  0  0  0  0  0  0  0  0
   45.9052   34.2453   36.8820 H   0  0  0  0  0  0  0  0  0  0  0  0
   44.6881   33.2645   37.7285 H   0  0  0  0  0  0  0  0  0  0  0  0
  2  1  1  0
  2  3  2  0
  3 12  1  0
  4  3  1  0
  5  4  2  0
  6  7  2  0
  6  5  1  0
  7  2  1  0
  8  9  2  0
 10 14  1  0
 10  9  1  0
 11 10  2  0
 12 11  1  0
 12 13  2  0
 13  8  1  0
 14 17  1  0
 15 14  1  0
 16 14  1  0
 18  7  1  0
 19 18  1  0
 20 19  1  0
 21 20  1  0
 21 22  1  0
 22 18  1  0
  4 23  1  0
  5 24  1  0
  6 25  1  0
  8 26  1  0
  9 27  1  0
 19 28  1  0
 19 29  1  0
 20 30  1  0
 20 31  1  0
 21 32  1  0
 21 33  1  0
 22 34  1  0
 22 35  1  0
M  ISO  8  23  14  24  14  25  14  26  14  27  14  28  13  29  13  30  13
M  ISO  5  31  13  32  13  33  13  34  13  35  13
M  END
>  <minimizedAffinity>  (1) 
-5.51605415

>  <minimizedRMSD>  (1) 
1.48093534

$$$$
