
     RDKit          3D

 26 27  0  0  0  0  0  0  0  0999 V2000
   47.5780   33.2050   43.3490 C   0  0  0  0  0  0  0  0  0  0  0  0
   46.6520   34.1050   43.9260 C   0  0  0  0  0  0  0  0  0  0  0  0
   45.9410   34.9460   43.0760 C   0  0  0  0  0  0  0  0  0  0  0  0
   46.1670   34.8670   41.7280 N   0  0  0  0  0  0  0  0  0  0  0  0
   47.0680   33.9860   41.2050 C   0  0  0  0  0  0  0  0  0  0  0  0
   47.7570   33.1730   42.0130 N   0  0  0  0  0  0  0  0  0  0  0  0
   45.0460   32.4030   39.6940 Cl  0  0  0  0  0  0  0  0  0  0  0  0
   46.3780   33.2370   38.9740 C   0  0  0  0  0  0  0  0  0  0  0  0
   47.2680   33.9470   39.7480 C   0  0  0  0  0  0  0  0  0  0  0  0
   48.3490   34.6300   39.2050 C   0  0  0  0  0  0  0  0  0  0  0  0
   48.4990   34.5670   37.8410 C   0  0  0  0  0  0  0  0  0  0  0  0
   47.6190   33.8630   37.0580 C   0  0  0  0  0  0  0  0  0  0  0  0
   46.5780   33.2070   37.6010 C   0  0  0  0  0  0  0  0  0  0  0  0
   45.5880   32.4260   36.7980 C   0  0  0  0  0  0  0  0  0  0  0  0
   44.9320   35.9430   43.5660 C   0  0  0  0  0  0  0  0  0  0  0  0
   45.2650   37.2050   43.1710 F   0  0  0  0  0  0  0  0  0  0  0  0
   43.6880   35.6160   43.0270 F   0  0  0  0  0  0  0  0  0  0  0  0
   44.8930   35.8280   44.9350 F   0  0  0  0  0  0  0  0  0  0  0  0
   48.1558   32.5269   43.9942 H   0  0  0  0  0  0  0  0  0  0  0  0
   46.4985   34.1390   45.0147 H   0  0  0  0  0  0  0  0  0  0  0  0
   49.0509   35.1940   39.8368 H   0  0  0  0  0  0  0  0  0  0  0  0
   49.3416   35.0915   37.3668 H   0  0  0  0  0  0  0  0  0  0  0  0
   47.7674   33.8347   35.9684 H   0  0  0  0  0  0  0  0  0  0  0  0
   44.9078   31.8894   37.4758 H   0  0  0  0  0  0  0  0  0  0  0  0
   45.0076   33.1121   36.1637 H   0  0  0  0  0  0  0  0  0  0  0  0
   46.1201   31.7018   36.1637 H   0  0  0  0  0  0  0  0  0  0  0  0
  1  2  2  0
  3 15  1  0
  3  2  1  0
  4  3  2  0
  5  4  1  0
  5  6  2  0
  6  1  1  0
  8  7  1  0
  8  9  2  0
  9  5  1  0
 10  9  1  0
 11 10  2  0
 12 13  2  0
 12 11  1  0
 13  8  1  0
 14 13  1  0
 15 18  1  0
 16 15  1  0
 17 15  1  0
  1 19  1  0
  2 20  1  0
 10 21  1  0
 11 22  1  0
 12 23  1  0
 14 24  1  0
 14 25  1  0
 14 26  1  0
M  ISO  8  19  14  20  14  21  14  22  14  23  14  24   8  25   8  26   8
M  END
>  <minimizedAffinity>  (1) 
-5.11945486

>  <minimizedRMSD>  (1) 
0.0598300323

$$$$
