
     RDKit          3D

 25 26  0  0  0  0  0  0  0  0999 V2000
   45.0230   32.3770   39.7380 Cl  0  0  0  0  0  0  0  0  0  0  0  0
   46.3450   33.2070   39.0080 C   0  0  0  0  0  0  0  0  0  0  0  0
   47.2460   33.9310   39.7620 C   0  0  0  0  0  0  0  0  0  0  0  0
   48.3280   34.6170   39.2090 C   0  0  0  0  0  0  0  0  0  0  0  0
   48.4480   34.5280   37.8460 C   0  0  0  0  0  0  0  0  0  0  0  0
   47.5670   33.8140   37.0660 C   0  0  0  0  0  0  0  0  0  0  0  0
   46.5250   33.1580   37.6310 C   0  0  0  0  0  0  0  0  0  0  0  0
   47.5780   33.2120   43.3670 C   0  0  0  0  0  0  0  0  0  0  0  0
   46.6530   34.1120   43.9480 C   0  0  0  0  0  0  0  0  0  0  0  0
   45.9430   34.9390   43.0950 C   0  0  0  0  0  0  0  0  0  0  0  0
   46.1560   34.8580   41.7570 N   0  0  0  0  0  0  0  0  0  0  0  0
   47.0530   33.9810   41.2200 C   0  0  0  0  0  0  0  0  0  0  0  0
   47.7510   33.1700   42.0380 N   0  0  0  0  0  0  0  0  0  0  0  0
   44.9300   35.9420   43.5710 C   0  0  0  0  0  0  0  0  0  0  0  0
   45.2620   37.2030   43.1850 F   0  0  0  0  0  0  0  0  0  0  0  0
   43.6950   35.6220   43.0390 F   0  0  0  0  0  0  0  0  0  0  0  0
   44.8940   35.8190   44.9480 F   0  0  0  0  0  0  0  0  0  0  0  0
   45.6520   32.4400   36.7660 N   0  0  0  0  0  0  0  0  0  0  0  0
   49.0366   35.1903   39.8248 H   0  0  0  0  0  0  0  0  0  0  0  0
   49.2833   35.0491   37.3554 H   0  0  0  0  0  0  0  0  0  0  0  0
   47.7100   33.7757   35.9760 H   0  0  0  0  0  0  0  0  0  0  0  0
   48.1615   32.5395   44.0129 H   0  0  0  0  0  0  0  0  0  0  0  0
   46.5039   34.1527   45.0371 H   0  0  0  0  0  0  0  0  0  0  0  0
   44.8477   31.9278   37.1555 H   0  0  0  0  0  0  0  0  0  0  0  0
   45.8245   32.4326   35.7506 H   0  0  0  0  0  0  0  0  0  0  0  0
  2  1  1  0
  2  3  2  0
  3 12  1  0
  4  3  1  0
  5  4  2  0
  6  7  2  0
  6  5  1  0
  7  2  1  0
  8  9  2  0
 10 14  1  0
 10  9  1  0
 11 10  2  0
 12 11  1  0
 12 13  2  0
 13  8  1  0
 14 17  1  0
 15 14  1  0
 16 14  1  0
 18  7  1  0
  4 19  1  0
  5 20  1  0
  6 21  1  0
  8 22  1  0
  9 23  1  0
 18 24  1  0
 18 25  1  0
M  ISO  5  19  14  20  14  21  14  22  14  23  14
M  END
>  <minimizedAffinity>  (1) 
-5.10272074

>  <minimizedRMSD>  (1) 
0.0514881462

$$$$
