
     RDKit          3D

 30 32  0  0  0  0  0  0  0  0999 V2000
   45.4990   32.3130   40.5810 Cl  0  0  0  0  0  0  0  0  0  0  0  0
   46.7790   33.4180   40.2090 C   0  0  0  0  0  0  0  0  0  0  0  0
   47.3620   34.1740   41.1900 C   0  0  0  0  0  0  0  0  0  0  0  0
   48.3950   35.0710   40.9240 C   0  0  0  0  0  0  0  0  0  0  0  0
   48.7980   35.1550   39.6050 C   0  0  0  0  0  0  0  0  0  0  0  0
   48.2120   34.3930   38.6140 C   0  0  0  0  0  0  0  0  0  0  0  0
   47.2170   33.5340   38.9030 C   0  0  0  0  0  0  0  0  0  0  0  0
   46.9150   32.9130   44.6250 C   0  0  0  0  0  0  0  0  0  0  0  0
   45.9730   33.8240   45.1660 C   0  0  0  0  0  0  0  0  0  0  0  0
   45.5120   34.8480   44.3440 C   0  0  0  0  0  0  0  0  0  0  0  0
   45.9860   34.9260   43.0620 N   0  0  0  0  0  0  0  0  0  0  0  0
   46.8860   34.0390   42.5780 C   0  0  0  0  0  0  0  0  0  0  0  0
   47.3380   33.0490   43.3620 N   0  0  0  0  0  0  0  0  0  0  0  0
   44.5160   35.8720   44.7980 C   0  0  0  0  0  0  0  0  0  0  0  0
   44.9760   37.1360   44.5640 F   0  0  0  0  0  0  0  0  0  0  0  0
   43.3370   35.6780   44.0950 F   0  0  0  0  0  0  0  0  0  0  0  0
   44.3000   35.6420   46.1330 F   0  0  0  0  0  0  0  0  0  0  0  0
   46.5840   32.7200   37.8700 C   0  0  0  0  0  0  0  0  0  0  0  0
   45.5850   33.1670   37.0080 C   0  0  0  0  0  0  0  0  0  0  0  0
   45.2140   32.1490   36.1630 C   0  0  0  0  0  0  0  0  0  0  0  0
   46.0290   31.1010   36.5600 C   0  0  0  0  0  0  0  0  0  0  0  0
   46.8190   31.4670   37.5630 O   0  0  0  0  0  0  0  0  0  0  0  0
   48.8612   35.6754   41.7161 H   0  0  0  0  0  0  0  0  0  0  0  0
   49.6086   35.8486   39.3370 H   0  0  0  0  0  0  0  0  0  0  0  0
   48.5625   34.4891   37.5758 H   0  0  0  0  0  0  0  0  0  0  0  0
   47.3001   32.0906   45.2458 H   0  0  0  0  0  0  0  0  0  0  0  0
   45.6178   33.7246   46.2023 H   0  0  0  0  0  0  0  0  0  0  0  0
   45.1581   34.1808   37.0044 H   0  0  0  0  0  0  0  0  0  0  0  0
   44.4556   32.1626   35.3663 H   0  0  0  0  0  0  0  0  0  0  0  0
   46.0226   30.0995   36.1051 H   0  0  0  0  0  0  0  0  0  0  0  0
  2  1  1  0
  2  3  2  0
  3 12  1  0
  4  3  1  0
  5  4  2  0
  6  7  2  0
  6  5  1  0
  7  2  1  0
  8  9  2  0
 10 14  1  0
 10  9  1  0
 11 10  2  0
 12 11  1  0
 12 13  2  0
 13  8  1  0
 14 17  1  0
 15 14  1  0
 16 14  1  0
 18  7  1  0
 19 18  2  0
 20 21  2  0
 20 19  1  0
 21 22  1  0
 22 18  1  0
  4 23  1  0
  5 24  1  0
  6 25  1  0
  8 26  1  0
  9 27  1  0
 19 28  1  0
 20 29  1  0
 21 30  1  0
M  ISO  8  23  14  24  14  25  14  26  14  27  14  28  14  29  14  30  14
M  END
>  <minimizedAffinity>  (1) 
-5.53928375

>  <minimizedRMSD>  (1) 
1.48245847

$$$$
