
     RDKit          3D

 36 38  0  0  0  0  0  0  0  0999 V2000
   45.0820   32.3580   40.8290 Cl  0  0  0  0  0  0  0  0  0  0  0  0
   46.4340   33.3150   40.3370 C   0  0  0  0  0  0  0  0  0  0  0  0
   47.1680   34.0290   41.2430 C   0  0  0  0  0  0  0  0  0  0  0  0
   48.2590   34.8080   40.8790 C   0  0  0  0  0  0  0  0  0  0  0  0
   48.5700   34.8260   39.5370 C   0  0  0  0  0  0  0  0  0  0  0  0
   47.8380   34.1090   38.6090 C   0  0  0  0  0  0  0  0  0  0  0  0
   46.7830   33.3610   38.9980 C   0  0  0  0  0  0  0  0  0  0  0  0
   47.0020   32.9770   44.7720 C   0  0  0  0  0  0  0  0  0  0  0  0
   46.0600   33.8920   45.3160 C   0  0  0  0  0  0  0  0  0  0  0  0
   45.5020   34.8470   44.4710 C   0  0  0  0  0  0  0  0  0  0  0  0
   45.8940   34.8500   43.1600 N   0  0  0  0  0  0  0  0  0  0  0  0
   46.7870   33.9740   42.6670 C   0  0  0  0  0  0  0  0  0  0  0  0
   47.3270   33.0510   43.4790 N   0  0  0  0  0  0  0  0  0  0  0  0
   44.5060   35.8550   44.9320 C   0  0  0  0  0  0  0  0  0  0  0  0
   44.9710   37.1260   44.7150 F   0  0  0  0  0  0  0  0  0  0  0  0
   43.3330   35.6720   44.2090 F   0  0  0  0  0  0  0  0  0  0  0  0
   44.2850   35.6220   46.2560 F   0  0  0  0  0  0  0  0  0  0  0  0
   45.9920   32.5920   38.0310 C   0  0  0  0  0  0  0  0  0  0  0  0
   44.6130   32.6840   37.8990 C   0  0  0  0  0  0  0  0  0  0  0  0
   44.2020   31.8320   36.9050 C   0  0  0  0  0  0  0  0  0  0  0  0
   45.3760   31.2510   36.4730 C   0  0  0  0  0  0  0  0  0  0  0  0
   46.4050   31.7200   37.1540 O   0  0  0  0  0  0  0  0  0  0  0  0
   45.5480   30.3030   35.4720 O   0  0  0  0  0  0  0  0  0  0  0  0
   46.0570   30.1310   32.8670 O   0  0  0  0  0  0  0  0  0  0  0  0
   45.0320   30.6170   33.8500 P   0  0  0  0  0  0  0  0  0  0  0  0
   43.5270   29.8700   33.6560 O   0  0  0  0  0  0  0  0  0  0  0  0
   44.7910   32.2970   33.6690 O   0  0  0  0  0  0  0  0  0  0  0  0
   48.8406   35.3772   41.6190 H   0  0  0  0  0  0  0  0  0  0  0  0
   49.4247   35.4277   39.1943 H   0  0  0  0  0  0  0  0  0  0  0  0
   48.1170   34.1480   37.5457 H   0  0  0  0  0  0  0  0  0  0  0  0
   47.4615   32.2109   45.4138 H   0  0  0  0  0  0  0  0  0  0  0  0
   45.7789   33.8465   46.3785 H   0  0  0  0  0  0  0  0  0  0  0  0
   43.9561   33.3347   38.4949 H   0  0  0  0  0  0  0  0  0  0  0  0
   43.1797   31.6546   36.5397 H   0  0  0  0  0  0  0  0  0  0  0  0
   43.1375   29.6767   34.5454 H   0  0  0  0  0  0  0  0  0  0  0  0
   44.7304   32.7198   34.5621 H   0  0  0  0  0  0  0  0  0  0  0  0
  2  1  1  0
  2  3  2  0
  3 12  1  0
  4  3  1  0
  5  4  2  0
  6  7  2  0
  6  5  1  0
  7  2  1  0
  8  9  2  0
 10 14  1  0
 10  9  1  0
 11 10  2  0
 12 11  1  0
 12 13  2  0
 13  8  1  0
 14 17  1  0
 15 14  1  0
 16 14  1  0
 18  7  1  0
 19 18  2  0
 20 19  1  0
 21 20  2  0
 21 22  1  0
 22 18  1  0
 23 21  1  0
 24 25  2  0
 25 23  1  0
 26 25  1  0
 27 25  1  0
  4 28  1  0
  5 29  1  0
  6 30  1  0
  8 31  1  0
  9 32  1  0
 19 33  1  0
 20 34  1  0
 26 35  1  0
 27 36  1  0
M  ISO  8  28  14  29  14  30  14  31  14  32  14  33  14  34  14  35   3
M  ISO  1  36   3
M  END
>  <minimizedAffinity>  (1) 
-6.24552774

>  <minimizedRMSD>  (1) 
1.01303017

$$$$
