
     RDKit          3D

 32 34  0  0  0  0  0  0  0  0999 V2000
   45.4940   32.3260   40.5790 Cl  0  0  0  0  0  0  0  0  0  0  0  0
   46.7820   33.4280   40.2030 C   0  0  0  0  0  0  0  0  0  0  0  0
   47.3660   34.1820   41.1860 C   0  0  0  0  0  0  0  0  0  0  0  0
   48.3950   35.0700   40.9190 C   0  0  0  0  0  0  0  0  0  0  0  0
   48.7990   35.1530   39.6040 C   0  0  0  0  0  0  0  0  0  0  0  0
   48.2110   34.3960   38.6140 C   0  0  0  0  0  0  0  0  0  0  0  0
   47.2150   33.5420   38.9000 C   0  0  0  0  0  0  0  0  0  0  0  0
   46.9160   32.9160   44.6200 C   0  0  0  0  0  0  0  0  0  0  0  0
   45.9710   33.8260   45.1640 C   0  0  0  0  0  0  0  0  0  0  0  0
   45.5100   34.8460   44.3470 C   0  0  0  0  0  0  0  0  0  0  0  0
   45.9850   34.9320   43.0600 N   0  0  0  0  0  0  0  0  0  0  0  0
   46.8870   34.0460   42.5780 C   0  0  0  0  0  0  0  0  0  0  0  0
   47.3380   33.0570   43.3560 N   0  0  0  0  0  0  0  0  0  0  0  0
   44.5170   35.8670   44.7940 C   0  0  0  0  0  0  0  0  0  0  0  0
   44.9820   37.1390   44.5570 F   0  0  0  0  0  0  0  0  0  0  0  0
   43.3290   35.6800   44.0860 F   0  0  0  0  0  0  0  0  0  0  0  0
   44.2950   35.6420   46.1290 F   0  0  0  0  0  0  0  0  0  0  0  0
   46.5740   32.7240   37.8620 C   0  0  0  0  0  0  0  0  0  0  0  0
   45.5840   33.1750   37.0060 C   0  0  0  0  0  0  0  0  0  0  0  0
   45.2220   32.1430   36.1700 C   0  0  0  0  0  0  0  0  0  0  0  0
   46.0230   31.0960   36.5640 C   0  0  0  0  0  0  0  0  0  0  0  0
   46.8010   31.4760   37.5580 O   0  0  0  0  0  0  0  0  0  0  0  0
   46.0460   29.7800   36.0140 N   0  0  0  0  0  0  0  0  0  0  0  0
   48.8626   35.6739   41.7106 H   0  0  0  0  0  0  0  0  0  0  0  0
   49.6134   35.8426   39.3373 H   0  0  0  0  0  0  0  0  0  0  0  0
   48.5621   34.4925   37.5760 H   0  0  0  0  0  0  0  0  0  0  0  0
   47.3028   32.0926   45.2384 H   0  0  0  0  0  0  0  0  0  0  0  0
   45.6165   33.7245   46.2003 H   0  0  0  0  0  0  0  0  0  0  0  0
   45.1577   34.1890   36.9956 H   0  0  0  0  0  0  0  0  0  0  0  0
   44.4662   32.1531   35.3708 H   0  0  0  0  0  0  0  0  0  0  0  0
   46.6932   29.0744   36.3936 H   0  0  0  0  0  0  0  0  0  0  0  0
   45.4154   29.5354   35.2372 H   0  0  0  0  0  0  0  0  0  0  0  0
  2  1  1  0
  2  3  2  0
  3 12  1  0
  4  3  1  0
  5  4  2  0
  6  7  2  0
  6  5  1  0
  7  2  1  0
  8  9  2  0
 10 14  1  0
 10  9  1  0
 11 10  2  0
 12 11  1  0
 12 13  2  0
 13  8  1  0
 14 17  1  0
 15 14  1  0
 16 14  1  0
 18  7  1  0
 19 18  2  0
 20 21  2  0
 20 19  1  0
 21 22  1  0
 22 18  1  0
 23 21  1  0
  4 24  1  0
  5 25  1  0
  6 26  1  0
  8 27  1  0
  9 28  1  0
 19 29  1  0
 20 30  1  0
 23 31  1  0
 23 32  1  0
M  ISO  7  24  14  25  14  26  14  27  14  28  14  29  14  30  14
M  END
>  <minimizedAffinity>  (1) 
-5.62345123

>  <minimizedRMSD>  (1) 
0.00600576634

$$$$
