
     RDKit          3D

 36 38  0  0  0  0  0  0  0  0999 V2000
   45.5350   32.3480   40.5060 Cl  0  0  0  0  0  0  0  0  0  0  0  0
   46.8120   33.4600   40.1710 C   0  0  0  0  0  0  0  0  0  0  0  0
   47.3810   34.2060   41.1650 C   0  0  0  0  0  0  0  0  0  0  0  0
   48.4080   35.1050   40.9210 C   0  0  0  0  0  0  0  0  0  0  0  0
   48.8290   35.2100   39.6120 C   0  0  0  0  0  0  0  0  0  0  0  0
   48.2620   34.4620   38.6050 C   0  0  0  0  0  0  0  0  0  0  0  0
   47.2640   33.5930   38.8670 C   0  0  0  0  0  0  0  0  0  0  0  0
   46.8940   32.8880   44.5740 C   0  0  0  0  0  0  0  0  0  0  0  0
   45.9570   33.7970   45.1210 C   0  0  0  0  0  0  0  0  0  0  0  0
   45.5150   34.8380   44.3130 C   0  0  0  0  0  0  0  0  0  0  0  0
   45.9950   34.9380   43.0450 N   0  0  0  0  0  0  0  0  0  0  0  0
   46.8930   34.0540   42.5430 C   0  0  0  0  0  0  0  0  0  0  0  0
   47.3300   33.0430   43.3130 N   0  0  0  0  0  0  0  0  0  0  0  0
   44.5210   35.8730   44.7700 C   0  0  0  0  0  0  0  0  0  0  0  0
   44.9740   37.1320   44.5520 F   0  0  0  0  0  0  0  0  0  0  0  0
   43.3390   35.6780   44.0800 F   0  0  0  0  0  0  0  0  0  0  0  0
   44.3070   35.6360   46.1100 F   0  0  0  0  0  0  0  0  0  0  0  0
   46.6490   32.7940   37.8220 C   0  0  0  0  0  0  0  0  0  0  0  0
   45.5850   33.2270   37.0160 C   0  0  0  0  0  0  0  0  0  0  0  0
   45.2600   32.2090   36.1370 C   0  0  0  0  0  0  0  0  0  0  0  0
   46.1460   31.2030   36.4530 C   0  0  0  0  0  0  0  0  0  0  0  0
   46.9430   31.5710   37.4370 O   0  0  0  0  0  0  0  0  0  0  0  0
   46.1280   29.8960   35.7150 C   0  0  0  0  0  0  0  0  0  0  0  0
   46.3330   30.0470   34.2490 C   0  0  0  0  0  0  0  0  0  0  0  0
   48.8616   35.7011   41.7265 H   0  0  0  0  0  0  0  0  0  0  0  0
   49.6403   35.9108   39.3657 H   0  0  0  0  0  0  0  0  0  0  0  0
   48.6274   34.5743   37.5736 H   0  0  0  0  0  0  0  0  0  0  0  0
   47.2665   32.0517   45.1837 H   0  0  0  0  0  0  0  0  0  0  0  0
   45.5906   33.6833   46.1519 H   0  0  0  0  0  0  0  0  0  0  0  0
   45.0928   34.2091   37.0733 H   0  0  0  0  0  0  0  0  0  0  0  0
   44.4762   32.2043   35.3652 H   0  0  0  0  0  0  0  0  0  0  0  0
   46.9288   29.2572   36.1159 H   0  0  0  0  0  0  0  0  0  0  0  0
   45.1323   29.4519   35.8615 H   0  0  0  0  0  0  0  0  0  0  0  0
   47.2062   30.6902   34.0652 H   0  0  0  0  0  0  0  0  0  0  0  0
   46.5048   29.0581   33.7990 H   0  0  0  0  0  0  0  0  0  0  0  0
   45.4395   30.5044   33.7990 H   0  0  0  0  0  0  0  0  0  0  0  0
  2  1  1  0
  2  3  2  0
  3 12  1  0
  4  3  1  0
  5  4  2  0
  6  7  2  0
  6  5  1  0
  7  2  1  0
  8  9  2  0
 10 14  1  0
 10  9  1  0
 11 10  2  0
 12 11  1  0
 12 13  2  0
 13  8  1  0
 14 17  1  0
 15 14  1  0
 16 14  1  0
 18  7  1  0
 19 18  2  0
 20 21  2  0
 20 19  1  0
 21 22  1  0
 22 18  1  0
 23 21  1  0
 24 23  1  0
  4 25  1  0
  5 26  1  0
  6 27  1  0
  8 28  1  0
  9 29  1  0
 19 30  1  0
 20 31  1  0
 23 32  1  0
 23 33  1  0
 24 34  1  0
 24 35  1  0
 24 36  1  0
M  ISO  8  25  14  26  14  27  14  28  14  29  14  30  14  31  14  32   8
M  ISO  4  33   8  34   8  35   8  36   8
M  END
>  <minimizedAffinity>  (1) 
-5.47472906

>  <minimizedRMSD>  (1) 
0.624591112

$$$$
