
     RDKit          3D

 22 23  0  0  0  0  0  0  0  0999 V2000
   44.4090   36.1720   44.7850 C   0  0  0  0  0  0  0  0  0  0  0  0
   45.0680   36.0690   43.5400 C   0  0  0  0  0  0  0  0  0  0  0  0
   45.9040   34.9780   43.3280 C   0  0  0  0  0  0  0  0  0  0  0  0
   46.0520   34.0640   44.3190 N   0  0  0  0  0  0  0  0  0  0  0  0
   45.4000   34.2020   45.5040 C   0  0  0  0  0  0  0  0  0  0  0  0
   44.5830   35.2560   45.7300 N   0  0  0  0  0  0  0  0  0  0  0  0
   45.5600   33.2380   46.5440 N   0  0  0  0  0  0  0  0  0  0  0  0
   46.6310   34.7580   42.1000 C   0  0  0  0  0  0  0  0  0  0  0  0
   47.8680   35.3510   41.9610 C   0  0  0  0  0  0  0  0  0  0  0  0
   48.6530   35.2030   40.8180 C   0  0  0  0  0  0  0  0  0  0  0  0
   48.1820   34.4300   39.7680 C   0  0  0  0  0  0  0  0  0  0  0  0
   46.9450   33.8440   39.9200 C   0  0  0  0  0  0  0  0  0  0  0  0
   46.1690   33.9910   41.0520 C   0  0  0  0  0  0  0  0  0  0  0  0
   43.7408   37.0250   44.9746 H   0  0  0  0  0  0  0  0  0  0  0  0
   44.9240   36.8307   42.7596 H   0  0  0  0  0  0  0  0  0  0  0  0
   45.0597   33.3556   47.4366 H   0  0  0  0  0  0  0  0  0  0  0  0
   46.1758   32.4247   46.4020 H   0  0  0  0  0  0  0  0  0  0  0  0
   48.2521   35.9673   42.7872 H   0  0  0  0  0  0  0  0  0  0  0  0
   49.6350   35.6941   40.7503 H   0  0  0  0  0  0  0  0  0  0  0  0
   48.7725   34.2903   38.8505 H   0  0  0  0  0  0  0  0  0  0  0  0
   46.5553   33.2270   39.0969 H   0  0  0  0  0  0  0  0  0  0  0  0
   45.1874   33.4988   41.1174 H   0  0  0  0  0  0  0  0  0  0  0  0
  1  6  2  0
  2  1  1  0
  3  2  2  0
  3  4  1  0
  4  5  2  0
  5  6  1  0
  5  7  1  0
  8  3  1  0
  9  8  2  0
 10  9  1  0
 11 12  1  0
 11 10  2  0
 12 13  2  0
 13  8  1  0
  1 14  1  0
  2 15  1  0
  7 16  1  0
  7 17  1  0
  9 18  1  0
 10 19  1  0
 11 20  1  0
 12 21  1  0
 13 22  1  0
M  ISO  7  14  14  15  14  18  14  19  14  20  14  21  14  22  14
M  END
>  <minimizedAffinity>  (1) 
-5.42859077

>  <minimizedRMSD>  (1) 
1.26644349

$$$$
