
     RDKit          3D

 23 25  0  0  0  0  0  0  0  0999 V2000
   47.0570   33.0930   43.5490 N   0  0  0  0  0  0  0  0  0  0  0  0
   46.8690   31.7570   43.4790 C   0  0  0  0  0  0  0  0  0  0  0  0
   47.9800   31.1710   43.0080 N   0  0  0  0  0  0  0  0  0  0  0  0
   48.9240   32.0980   42.7560 C   0  0  0  0  0  0  0  0  0  0  0  0
   50.2140   32.0330   42.2740 C   0  0  0  0  0  0  0  0  0  0  0  0
   50.9220   33.1890   42.1340 N   0  0  0  0  0  0  0  0  0  0  0  0
   50.3250   34.3640   42.4760 C   0  0  0  0  0  0  0  0  0  0  0  0
   49.0630   34.4150   42.9480 N   0  0  0  0  0  0  0  0  0  0  0  0
   48.3140   33.2900   43.1060 C   0  0  0  0  0  0  0  0  0  0  0  0
   44.7890   36.0440   44.0050 C   0  0  0  0  0  0  0  0  0  0  0  0
   45.6870   35.2260   43.3210 C   0  0  0  0  0  0  0  0  0  0  0  0
   46.1480   34.0970   43.9890 C   0  0  0  0  0  0  0  0  0  0  0  0
   45.7130   33.8410   45.2620 N   0  0  0  0  0  0  0  0  0  0  0  0
   44.8420   34.6680   45.8790 C   0  0  0  0  0  0  0  0  0  0  0  0
   44.3760   35.7820   45.2390 N   0  0  0  0  0  0  0  0  0  0  0  0
   44.3630   34.4430   47.1960 N   0  0  0  0  0  0  0  0  0  0  0  0
   45.9464   31.2304   43.7645 H   0  0  0  0  0  0  0  0  0  0  0  0
   50.6638   31.0653   42.0072 H   0  0  0  0  0  0  0  0  0  0  0  0
   50.8900   35.3011   42.3637 H   0  0  0  0  0  0  0  0  0  0  0  0
   44.4068   36.9440   43.5012 H   0  0  0  0  0  0  0  0  0  0  0  0
   46.0162   35.4631   42.2985 H   0  0  0  0  0  0  0  0  0  0  0  0
   43.6986   35.1046   47.6224 H   0  0  0  0  0  0  0  0  0  0  0  0
   44.6798   33.6182   47.7253 H   0  0  0  0  0  0  0  0  0  0  0  0
  1 12  1  0
  2  1  1  0
  3  2  2  0
  4  3  1  0
  4  9  2  0
  5  4  1  0
  6  5  2  0
  6  7  1  0
  7  8  2  0
  8  9  1  0
  9  1  1  0
 10 15  2  0
 11 12  2  0
 11 10  1  0
 12 13  1  0
 13 14  2  0
 14 16  1  0
 15 14  1  0
  2 17  1  0
  5 18  1  0
  7 19  1  0
 10 20  1  0
 11 21  1  0
 16 22  1  0
 16 23  1  0
M  ISO  5  17  14  18  14  19  14  20  14  21  14
M  END
>  <minimizedAffinity>  (1) 
-5.37638235

>  <minimizedRMSD>  (1) 
1.07398522

$$$$
