
     RDKit          3D

 21 22  0  0  0  0  0  0  0  0999 V2000
   44.4650   36.1410   44.6680 C   0  0  0  0  0  0  0  0  0  0  0  0
   45.1600   36.0200   43.4520 C   0  0  0  0  0  0  0  0  0  0  0  0
   45.9980   34.9140   43.3340 C   0  0  0  0  0  0  0  0  0  0  0  0
   46.1080   34.0280   44.3550 N   0  0  0  0  0  0  0  0  0  0  0  0
   45.4130   34.1950   45.5040 C   0  0  0  0  0  0  0  0  0  0  0  0
   44.5830   35.2530   45.6720 N   0  0  0  0  0  0  0  0  0  0  0  0
   45.5230   33.2730   46.5760 N   0  0  0  0  0  0  0  0  0  0  0  0
   46.7420   34.7460   42.0890 C   0  0  0  0  0  0  0  0  0  0  0  0
   47.9710   35.3480   41.9240 C   0  0  0  0  0  0  0  0  0  0  0  0
   48.6090   35.1430   40.7250 C   0  0  0  0  0  0  0  0  0  0  0  0
   48.0440   34.3610   39.7110 C   0  0  0  0  0  0  0  0  0  0  0  0
   46.8100   33.7890   39.9480 C   0  0  0  0  0  0  0  0  0  0  0  0
   46.1670   33.9860   41.1360 N   0  0  0  0  0  0  0  0  0  0  0  0
   43.7936   37.0015   44.8050 H   0  0  0  0  0  0  0  0  0  0  0  0
   45.0485   36.7554   42.6416 H   0  0  0  0  0  0  0  0  0  0  0  0
   44.9836   33.4219   47.4407 H   0  0  0  0  0  0  0  0  0  0  0  0
   46.1423   32.4545   46.4898 H   0  0  0  0  0  0  0  0  0  0  0  0
   48.4204   35.9645   42.7165 H   0  0  0  0  0  0  0  0  0  0  0  0
   49.5922   35.6067   40.5569 H   0  0  0  0  0  0  0  0  0  0  0  0
   48.5666   34.2070   38.7554 H   0  0  0  0  0  0  0  0  0  0  0  0
   46.3399   33.1679   39.1713 H   0  0  0  0  0  0  0  0  0  0  0  0
  1  6  2  0
  2  1  1  0
  3  2  2  0
  3  4  1  0
  4  5  2  0
  5  6  1  0
  5  7  1  0
  8  3  1  0
  9  8  2  0
 10  9  1  0
 11 12  1  0
 11 10  2  0
 12 13  2  0
 13  8  1  0
  1 14  1  0
  2 15  1  0
  7 16  1  0
  7 17  1  0
  9 18  1  0
 10 19  1  0
 11 20  1  0
 12 21  1  0
M  ISO  6  14  14  15  14  18  14  19  14  20  14  21  14
M  END
>  <minimizedAffinity>  (1) 
-5.28959894

>  <minimizedRMSD>  (1) 
1.33088815

$$$$
