
     RDKit          3D

 18 18  0  0  0  0  0  0  0  0999 V2000
   45.0630   35.8300   43.5970 C   0  0  0  0  0  0  0  0  0  0  0  0
   46.0860   35.3260   42.7940 C   0  0  0  0  0  0  0  0  0  0  0  0
   46.8310   34.2550   43.2930 C   0  0  0  0  0  0  0  0  0  0  0  0
   46.5160   33.7700   44.5270 N   0  0  0  0  0  0  0  0  0  0  0  0
   45.5260   34.2760   45.2750 C   0  0  0  0  0  0  0  0  0  0  0  0
   44.7980   35.3200   44.7920 N   0  0  0  0  0  0  0  0  0  0  0  0
   45.1990   33.7710   46.5580 N   0  0  0  0  0  0  0  0  0  0  0  0
   47.8700   33.5910   42.7120 O   0  0  0  0  0  0  0  0  0  0  0  0
   50.2280   33.1860   41.7460 O   0  0  0  0  0  0  0  0  0  0  0  0
   49.2860   34.3300   42.1050 P   0  0  0  0  0  0  0  0  0  0  0  0
   50.0880   35.2320   43.3110 O   0  0  0  0  0  0  0  0  0  0  0  0
   48.9280   35.3140   40.7960 O   0  0  0  0  0  0  0  0  0  0  0  0
   44.4599   36.6731   43.2291 H   0  0  0  0  0  0  0  0  0  0  0  0
   46.2983   35.7561   41.8041 H   0  0  0  0  0  0  0  0  0  0  0  0
   44.4289   34.1927   47.0965 H   0  0  0  0  0  0  0  0  0  0  0  0
   45.7314   32.9822   46.9520 H   0  0  0  0  0  0  0  0  0  0  0  0
   49.8047   34.9134   44.2045 H   0  0  0  0  0  0  0  0  0  0  0  0
   48.6083   36.1927   41.1214 H   0  0  0  0  0  0  0  0  0  0  0  0
  1  6  2  0
  2  3  2  0
  2  1  1  0
  3  4  1  0
  4  5  2  0
  5  7  1  0
  6  5  1  0
  8  3  1  0
  9 10  2  0
 10  8  1  0
 10 11  1  0
 12 10  1  0
  1 13  1  0
  2 14  1  0
  7 15  1  0
  7 16  1  0
 11 17  1  0
 12 18  1  0
M  ISO  4  13  14  14  14  17   3  18   3
M  END
>  <minimizedAffinity>  (1) 
-5.00773048

>  <minimizedRMSD>  (1) 
0.973417878

$$$$
