
     RDKit          3D

 24 25  0  0  0  0  0  0  0  0999 V2000
   44.5300   36.0770   44.4550 C   0  0  0  0  0  0  0  0  0  0  0  0
   45.3420   35.8690   43.3210 C   0  0  0  0  0  0  0  0  0  0  0  0
   46.1950   34.7700   43.3680 C   0  0  0  0  0  0  0  0  0  0  0  0
   46.2210   33.9540   44.4630 N   0  0  0  0  0  0  0  0  0  0  0  0
   45.4210   34.2030   45.5190 C   0  0  0  0  0  0  0  0  0  0  0  0
   44.5660   35.2700   45.5220 N   0  0  0  0  0  0  0  0  0  0  0  0
   45.4130   33.3860   46.6770 N   0  0  0  0  0  0  0  0  0  0  0  0
   47.0340   34.4900   42.2880 N   0  0  0  0  0  0  0  0  0  0  0  0
   48.1510   35.2860   41.8190 C   0  0  0  0  0  0  0  0  0  0  0  0
   48.3970   34.8740   40.3850 C   0  0  0  0  0  0  0  0  0  0  0  0
   47.1760   34.0370   40.0590 C   0  0  0  0  0  0  0  0  0  0  0  0
   46.9800   33.3480   41.3970 C   0  0  0  0  0  0  0  0  0  0  0  0
   43.8412   36.9346   44.4629 H   0  0  0  0  0  0  0  0  0  0  0  0
   45.3035   36.5376   42.4484 H   0  0  0  0  0  0  0  0  0  0  0  0
   44.7858   33.6117   47.4622 H   0  0  0  0  0  0  0  0  0  0  0  0
   46.0344   32.5665   46.7334 H   0  0  0  0  0  0  0  0  0  0  0  0
   47.9032   36.3565   41.8700 H   0  0  0  0  0  0  0  0  0  0  0  0
   49.0447   35.1234   42.4394 H   0  0  0  0  0  0  0  0  0  0  0  0
   48.4619   35.7526   39.7264 H   0  0  0  0  0  0  0  0  0  0  0  0
   49.3445   34.3331   40.2448 H   0  0  0  0  0  0  0  0  0  0  0  0
   46.3114   34.6607   39.7881 H   0  0  0  0  0  0  0  0  0  0  0  0
   47.2872   33.3627   39.1970 H   0  0  0  0  0  0  0  0  0  0  0  0
   46.0086   32.8348   41.4519 H   0  0  0  0  0  0  0  0  0  0  0  0
   47.7114   32.5568   41.6185 H   0  0  0  0  0  0  0  0  0  0  0  0
  1  6  2  0
  2  3  2  0
  2  1  1  0
  3  4  1  0
  4  5  2  0
  5  6  1  0
  5  7  1  0
  8  3  1  0
  9  8  1  0
 10  9  1  0
 11 10  1  0
 11 12  1  0
 12  8  1  0
  1 13  1  0
  2 14  1  0
  7 15  1  0
  7 16  1  0
  9 17  1  0
  9 18  1  0
 10 19  1  0
 10 20  1  0
 11 21  1  0
 11 22  1  0
 12 23  1  0
 12 24  1  0
M  ISO  8  13  14  14  14  17  13  18  13  19  13  20  13  21  13  22  13
M  ISO  2  23  13  24  13
M  END
>  <minimizedAffinity>  (1) 
-4.71579838

>  <minimizedRMSD>  (1) 
0.656968236

$$$$
