
     RDKit          3D

 18 19  0  0  0  0  0  0  0  0999 V2000
   44.6160   36.0810   44.3070 C   0  0  0  0  0  0  0  0  0  0  0  0
   45.4690   35.7280   43.2180 C   0  0  0  0  0  0  0  0  0  0  0  0
   46.2600   34.5870   43.3830 C   0  0  0  0  0  0  0  0  0  0  0  0
   46.1950   33.8620   44.5510 N   0  0  0  0  0  0  0  0  0  0  0  0
   45.3530   34.2660   45.5470 C   0  0  0  0  0  0  0  0  0  0  0  0
   44.5770   35.3620   45.4210 N   0  0  0  0  0  0  0  0  0  0  0  0
   45.2800   33.5240   46.7570 N   0  0  0  0  0  0  0  0  0  0  0  0
   47.1800   34.1710   42.3050 C   0  0  0  0  0  0  0  0  0  0  0  0
   47.9290   33.0360   42.3880 C   0  0  0  0  0  0  0  0  0  0  0  0
   48.8790   32.9630   40.8270 S   0  0  0  0  0  0  0  0  0  0  0  0
   48.0800   34.5810   40.2460 C   0  0  0  0  0  0  0  0  0  0  0  0
   47.5250   34.6080   41.1760 N   0  0  0  0  0  0  0  0  0  0  0  0
   43.9754   36.9710   44.2201 H   0  0  0  0  0  0  0  0  0  0  0  0
   45.5023   36.3245   42.2944 H   0  0  0  0  0  0  0  0  0  0  0  0
   44.6454   33.8272   47.5095 H   0  0  0  0  0  0  0  0  0  0  0  0
   45.8617   32.6831   46.8814 H   0  0  0  0  0  0  0  0  0  0  0  0
   47.9565   32.3155   43.2187 H   0  0  0  0  0  0  0  0  0  0  0  0
   48.1498   35.2173   39.3514 H   0  0  0  0  0  0  0  0  0  0  0  0
  1  6  2  0
  2  3  2  0
  2  1  1  0
  3  4  1  0
  4  5  2  0
  5  7  1  0
  6  5  1  0
  8  9  2  0
  8  3  1  0
 10  9  1  0
 11 10  1  0
 11 12  2  0
 12  8  1  0
  1 13  1  0
  2 14  1  0
  7 15  1  0
  7 16  1  0
  9 17  1  0
 11 18  1  0
M  ISO  4  13  14  14  14  17  14  18  14
M  END
>  <minimizedAffinity>  (1) 
-4.39718485

>  <minimizedRMSD>  (1) 
1.01758051

$$$$
