
     RDKit          3D

 16 16  0  0  0  0  0  0  0  0999 V2000
   44.7610   36.0060   44.1080 C   0  0  0  0  0  0  0  0  0  0  0  0
   45.5580   35.1970   43.2940 C   0  0  0  0  0  0  0  0  0  0  0  0
   46.0310   34.0190   43.8650 C   0  0  0  0  0  0  0  0  0  0  0  0
   45.7080   33.7140   45.1540 N   0  0  0  0  0  0  0  0  0  0  0  0
   44.9360   34.5330   45.8890 C   0  0  0  0  0  0  0  0  0  0  0  0
   44.4600   35.6880   45.3580 N   0  0  0  0  0  0  0  0  0  0  0  0
   44.5770   34.2500   47.2320 N   0  0  0  0  0  0  0  0  0  0  0  0
   48.2130   33.2980   42.8270 C   0  0  0  0  0  0  0  0  0  0  0  0
   48.7170   34.4030   43.1570 O   0  0  0  0  0  0  0  0  0  0  0  0
   46.8520   33.0870   43.1790 N   0  0  0  0  0  0  0  0  0  0  0  0
   44.3673   36.9458   43.6936 H   0  0  0  0  0  0  0  0  0  0  0  0
   45.7987   35.4761   42.2576 H   0  0  0  0  0  0  0  0  0  0  0  0
   43.9827   34.9083   47.7559 H   0  0  0  0  0  0  0  0  0  0  0  0
   44.9106   33.3863   47.6832 H   0  0  0  0  0  0  0  0  0  0  0  0
   48.7965   32.5337   42.2929 H   0  0  0  0  0  0  0  0  0  0  0  0
   46.4282   32.1861   42.9151 H   0  0  0  0  0  0  0  0  0  0  0  0
  1  6  2  0
  2  3  2  0
  2  1  1  0
  3  4  1  0
  4  5  2  0
  5  7  1  0
  6  5  1  0
  8  9  2  0
  8 10  1  0
 10  3  1  0
  1 11  1  0
  2 12  1  0
  7 13  1  0
  7 14  1  0
  8 15  1  0
 10 16  1  0
M  ISO  3  11  14  12  14  15   6
M  END
>  <minimizedAffinity>  (1) 
-3.88656306

>  <minimizedRMSD>  (1) 
1.18531239

$$$$
