
     RDKit          3D

 15 15  0  0  0  0  0  0  0  0999 V2000
   44.6270   36.0690   44.3300 C   0  0  0  0  0  0  0  0  0  0  0  0
   45.4480   35.7080   43.2650 C   0  0  0  0  0  0  0  0  0  0  0  0
   46.2330   34.5600   43.4200 C   0  0  0  0  0  0  0  0  0  0  0  0
   46.1680   33.8450   44.5900 N   0  0  0  0  0  0  0  0  0  0  0  0
   45.3440   34.2560   45.5850 C   0  0  0  0  0  0  0  0  0  0  0  0
   44.5730   35.3600   45.4680 N   0  0  0  0  0  0  0  0  0  0  0  0
   45.2620   33.5320   46.8010 N   0  0  0  0  0  0  0  0  0  0  0  0
   47.1760   33.9850   42.4320 C   0  0  0  0  0  0  0  0  0  0  0  0
   44.0000   36.9678   44.2351 H   0  0  0  0  0  0  0  0  0  0  0  0
   45.4783   36.3012   42.3392 H   0  0  0  0  0  0  0  0  0  0  0  0
   44.6325   33.8534   47.5503 H   0  0  0  0  0  0  0  0  0  0  0  0
   45.8319   32.6846   46.9353 H   0  0  0  0  0  0  0  0  0  0  0  0
   47.9997   33.4828   42.9605 H   0  0  0  0  0  0  0  0  0  0  0  0
   46.6466   33.2559   41.8011 H   0  0  0  0  0  0  0  0  0  0  0  0
   47.5817   34.7895   41.8011 H   0  0  0  0  0  0  0  0  0  0  0  0
  1  6  2  0
  2  3  2  0
  2  1  1  0
  3  4  1  0
  4  5  2  0
  5  7  1  0
  6  5  1  0
  8  3  1  0
  1  9  1  0
  2 10  1  0
  7 11  1  0
  7 12  1  0
  8 13  1  0
  8 14  1  0
  8 15  1  0
M  ISO  5   9  14  10  14  13   8  14   8  15   8
M  END
>  <minimizedAffinity>  (1) 
-3.60163736

>  <minimizedRMSD>  (1) 
0.200564414

$$$$
