
     RDKit          3D

 29 30  0  0  1  0  0  0  0  0999 V2000
   47.3170   32.6810   47.5050 O   0  0  0  0  0  0  0  0  0  0  0  0
   45.9840   32.3230   46.8530 P   0  0  2  0  0  0  0  0  0  0  0  0
   46.3240   31.2010   45.6440 O   0  0  0  0  0  0  0  0  0  0  0  0
   45.3310   33.7690   46.2360 O   0  0  0  0  0  0  0  0  0  0  0  0
   45.2180   35.8340   43.3260 C   0  0  0  0  0  0  0  0  0  0  0  0
   46.2740   35.3400   42.5090 C   0  0  0  0  0  0  0  0  0  0  0  0
   47.0200   34.2620   43.0240 C   0  0  0  0  0  0  0  0  0  0  0  0
   46.6890   33.7720   44.2390 N   0  0  0  0  0  0  0  0  0  0  0  0
   45.6780   34.2710   44.9800 C   0  0  0  0  0  0  0  0  0  0  0  0
   44.9520   35.2970   44.5150 N   0  0  0  0  0  0  0  0  0  0  0  0
   44.4930   36.8840   42.8240 O   0  0  0  0  0  0  0  0  0  0  0  0
   45.0450   31.6290   48.0460 O   0  0  0  0  0  0  0  0  0  0  0  0
   46.7690   29.9860   48.0470 C   0  0  2  0  0  0  0  0  0  0  0  0
   45.2920   30.2820   48.2010 C   0  0  2  0  0  0  0  0  0  0  0  0
   44.7570   29.4640   47.0300 C   0  0  0  0  0  0  0  0  0  0  0  0
   45.5260   28.3230   46.9550 O   0  0  0  0  0  0  0  0  0  0  0  0
   46.7040   28.5190   47.6230 C   0  0  0  0  0  0  0  0  0  0  0  0
   47.4750   30.1510   49.2390 O   0  0  0  0  0  0  0  0  0  0  0  0
   46.5849   30.3399   46.0569 H   0  0  0  0  0  0  0  0  0  0  0  0
   46.4962   35.7782   41.5248 H   0  0  0  0  0  0  0  0  0  0  0  0
   47.8528   33.8290   42.4504 H   0  0  0  0  0  0  0  0  0  0  0  0
   44.7167   37.2604   41.9361 H   0  0  0  0  0  0  0  0  0  0  0  0
   47.2964   30.6516   47.3478 H   0  0  0  0  0  0  0  0  0  0  0  0
   44.8489   30.0377   49.1777 H   0  0  0  0  0  0  0  0  0  0  0  0
   43.7034   29.1995   47.2033 H   0  0  0  0  0  0  0  0  0  0  0  0
   44.8097   30.0370   46.0925 H   0  0  0  0  0  0  0  0  0  0  0  0
   46.7412   27.8717   48.5116 H   0  0  0  0  0  0  0  0  0  0  0  0
   47.5568   28.2710   46.9740 H   0  0  0  0  0  0  0  0  0  0  0  0
   46.8655   30.0085   50.0060 H   0  0  0  0  0  0  0  0  0  0  0  0
  2  1  2  0
  2 12  1  0
  3  2  1  0
  4  2  1  0
  5 10  2  0
  6  7  2  0
  6  5  1  0
  7  8  1  0
  8  9  2  0
  9  4  1  0
 10  9  1  0
 11  5  1  0
 13 14  1  0
 13 18  1  0
 14 12  1  0
 15 14  1  0
 16 15  1  0
 16 17  1  0
 17 13  1  0
  3 19  1  0
  6 20  1  0
  7 21  1  0
 11 22  1  0
 13 23  1  6
 14 24  1  1
 15 25  1  0
 15 26  1  0
 17 27  1  0
 17 28  1  0
 18 29  1  0
M  ISO  8  19   3  20  14  21  14  22   3  23  13  24  13  25  13  26  13
M  ISO  3  27  13  28  13  29   3
M  END
>  <minimizedAffinity>  (1) 
-4.85400867

>  <minimizedRMSD>  (1) 
1.74802768

$$$$
