
     RDKit          3D

 30 31  0  0  1  0  0  0  0  0999 V2000
   47.7940   32.5510   47.8920 O   0  0  0  0  0  0  0  0  0  0  0  0
   46.7090   32.0270   46.9790 P   0  0  2  0  0  0  0  0  0  0  0  0
   47.4460   31.3430   45.6230 O   0  0  0  0  0  0  0  0  0  0  0  0
   45.7290   33.3680   46.5610 O   0  0  0  0  0  0  0  0  0  0  0  0
   44.6290   35.2410   43.7230 C   0  0  0  0  0  0  0  0  0  0  0  0
   45.6900   35.1360   42.8050 C   0  0  0  0  0  0  0  0  0  0  0  0
   46.8080   34.3850   43.2140 C   0  0  0  0  0  0  0  0  0  0  0  0
   46.8050   33.8170   44.4390 N   0  0  0  0  0  0  0  0  0  0  0  0
   45.7500   33.9460   45.2950 C   0  0  0  0  0  0  0  0  0  0  0  0
   44.6820   34.6620   44.9100 N   0  0  0  0  0  0  0  0  0  0  0  0
   43.5430   35.9720   43.3220 O   0  0  0  0  0  0  0  0  0  0  0  0
   45.8480   30.8720   47.8280 O   0  0  0  0  0  0  0  0  0  0  0  0
   47.6680   29.3070   47.6640 C   0  0  2  0  0  0  0  0  0  0  0  0
   46.2290   29.6380   47.3300 C   0  0  1  0  0  0  0  0  0  0  0  0
   45.5640   28.5680   47.8700 O   0  0  0  0  0  0  0  0  0  0  0  0
   46.2050   27.4880   47.2620 C   0  0  0  0  0  0  0  0  0  0  0  0
   47.6800   27.8140   47.3720 C   0  0  2  0  0  0  0  0  0  0  0  0
   48.0020   29.6060   48.9710 O   0  0  0  0  0  0  0  0  0  0  0  0
   48.2470   27.0940   48.4170 O   0  0  0  0  0  0  0  0  0  0  0  0
   48.1396   30.6993   45.9139 H   0  0  0  0  0  0  0  0  0  0  0  0
   45.6479   35.6170   41.8166 H   0  0  0  0  0  0  0  0  0  0  0  0
   47.6724   34.2625   42.5448 H   0  0  0  0  0  0  0  0  0  0  0  0
   43.5335   36.3936   42.4263 H   0  0  0  0  0  0  0  0  0  0  0  0
   48.4119   29.8868   47.0980 H   0  0  0  0  0  0  0  0  0  0  0  0
   46.0196   29.7567   46.2567 H   0  0  0  0  0  0  0  0  0  0  0  0
   45.9035   27.3998   46.2078 H   0  0  0  0  0  0  0  0  0  0  0  0
   45.9513   26.5287   47.7368 H   0  0  0  0  0  0  0  0  0  0  0  0
   48.2687   27.5595   46.4783 H   0  0  0  0  0  0  0  0  0  0  0  0
   47.4240   29.0885   49.5860 H   0  0  0  0  0  0  0  0  0  0  0  0
   47.9475   27.4744   49.2805 H   0  0  0  0  0  0  0  0  0  0  0  0
  2 12  1  0
  2  1  2  0
  3  2  1  0
  4  2  1  0
  5 10  2  0
  6  7  2  0
  6  5  1  0
  7  8  1  0
  8  9  2  0
  9  4  1  0
 10  9  1  0
 11  5  1  0
 13 18  1  0
 14 13  1  0
 14 12  1  0
 14 15  1  0
 16 17  1  0
 16 15  1  0
 17 13  1  0
 17 19  1  0
  3 20  1  0
  6 21  1  0
  7 22  1  0
 11 23  1  0
 13 24  1  6
 14 25  1  6
 16 26  1  0
 16 27  1  0
 17 28  1  6
 18 29  1  0
 19 30  1  0
M  ISO  8  20   3  21  14  22  14  23   3  24  13  25  13  26  13  27  13
M  ISO  3  28  13  29   3  30   3
M  END
>  <minimizedAffinity>  (1) 
-4.68953848

>  <minimizedRMSD>  (1) 
4.33447027

$$$$
