
     RDKit          3D

 28 29  0  0  1  0  0  0  0  0999 V2000
   46.5220   31.5570   49.0590 O   0  0  0  0  0  0  0  0  0  0  0  0
   46.0000   31.4960   47.6360 P   0  0  2  0  0  0  0  0  0  0  0  0
   47.2400   30.9310   46.6540 O   0  0  0  0  0  0  0  0  0  0  0  0
   45.5300   33.0950   47.2370 O   0  0  0  0  0  0  0  0  0  0  0  0
   45.0100   35.1750   44.3780 C   0  0  0  0  0  0  0  0  0  0  0  0
   45.9990   34.7720   43.4650 C   0  0  0  0  0  0  0  0  0  0  0  0
   46.8480   33.7470   43.8940 C   0  0  0  0  0  0  0  0  0  0  0  0
   46.6870   33.2100   45.1180 N   0  0  0  0  0  0  0  0  0  0  0  0
   45.7080   33.6390   45.9690 C   0  0  0  0  0  0  0  0  0  0  0  0
   44.8810   34.6210   45.5830 N   0  0  0  0  0  0  0  0  0  0  0  0
   44.1530   36.1880   43.9810 O   0  0  0  0  0  0  0  0  0  0  0  0
   44.6980   30.4460   47.6290 O   0  0  0  0  0  0  0  0  0  0  0  0
   45.0810   29.2700   47.0430 C   0  0  1  0  0  0  0  0  0  0  0  0
   45.0520   28.0720   47.9700 C   0  0  0  0  0  0  0  0  0  0  0  0
   44.9040   26.9600   46.9790 C   0  0  0  0  0  0  0  0  0  0  0  0
   44.5170   27.4940   45.7590 O   0  0  0  0  0  0  0  0  0  0  0  0
   44.0740   28.7890   45.9960 C   0  0  0  0  0  0  0  0  0  0  0  0
   47.9802   30.5937   47.2183 H   0  0  0  0  0  0  0  0  0  0  0  0
   46.0994   35.2350   42.4723 H   0  0  0  0  0  0  0  0  0  0  0  0
   47.6463   33.3800   43.2322 H   0  0  0  0  0  0  0  0  0  0  0  0
   44.2518   36.5972   43.0850 H   0  0  0  0  0  0  0  0  0  0  0  0
   46.0834   29.5274   46.6703 H   0  0  0  0  0  0  0  0  0  0  0  0
   45.9854   27.9814   48.5450 H   0  0  0  0  0  0  0  0  0  0  0  0
   44.2657   28.1074   48.7384 H   0  0  0  0  0  0  0  0  0  0  0  0
   45.8648   26.4368   46.8649 H   0  0  0  0  0  0  0  0  0  0  0  0
   44.1449   26.2458   47.3308 H   0  0  0  0  0  0  0  0  0  0  0  0
   44.1191   29.4022   45.0839 H   0  0  0  0  0  0  0  0  0  0  0  0
   43.0250   28.8514   46.3212 H   0  0  0  0  0  0  0  0  0  0  0  0
  2  1  2  0
  3  2  1  0
  4  2  1  0
  5 10  2  0
  6  7  2  0
  6  5  1  0
  7  8  1  0
  8  9  2  0
  9  4  1  0
 10  9  1  0
 11  5  1  0
 12  2  1  0
 13 12  1  0
 13 14  1  0
 15 14  1  0
 16 17  1  0
 16 15  1  0
 17 13  1  0
  3 18  1  0
  6 19  1  0
  7 20  1  0
 11 21  1  0
 13 22  1  6
 14 23  1  0
 14 24  1  0
 15 25  1  0
 15 26  1  0
 17 27  1  0
 17 28  1  0
M  ISO  8  18   3  19  14  20  14  21   3  22  13  23  13  24  13  25  13
M  ISO  3  26  13  27  13  28  13
M  END
>  <minimizedAffinity>  (1) 
-4.4114933

>  <minimizedRMSD>  (1) 
2.1751368

$$$$
