
     RDKit          3D

 23 23  0  0  0  0  0  0  0  0999 V2000
   45.0010   35.4970   44.2190 C   0  0  0  0  0  0  0  0  0  0  0  0
   45.9960   34.9350   43.3700 C   0  0  0  0  0  0  0  0  0  0  0  0
   46.7040   33.8220   43.8730 C   0  0  0  0  0  0  0  0  0  0  0  0
   46.4050   33.3630   45.1060 N   0  0  0  0  0  0  0  0  0  0  0  0
   45.4370   33.9420   45.8820 C   0  0  0  0  0  0  0  0  0  0  0  0
   44.7520   35.0030   45.4190 N   0  0  0  0  0  0  0  0  0  0  0  0
   44.3150   36.5810   43.7220 O   0  0  0  0  0  0  0  0  0  0  0  0
   45.1280   33.4690   47.1510 O   0  0  0  0  0  0  0  0  0  0  0  0
   45.5890   32.1780   49.3470 O   0  0  0  0  0  0  0  0  0  0  0  0
   45.9170   32.1440   47.8740 P   0  0  2  0  0  0  0  0  0  0  0  0
   47.5980   32.2580   47.7070 O   0  0  0  0  0  0  0  0  0  0  0  0
   45.3900   30.6830   47.2520 O   0  0  0  0  0  0  0  0  0  0  0  0
   45.1480   29.8040   48.3000 C   0  0  0  0  0  0  0  0  0  0  0  0
   45.1140   28.4040   47.6910 C   0  0  0  0  0  0  0  0  0  0  0  0
   46.2029   35.3475   42.3715 H   0  0  0  0  0  0  0  0  0  0  0  0
   47.4860   33.3373   43.2700 H   0  0  0  0  0  0  0  0  0  0  0  0
   44.5248   36.9279   42.8188 H   0  0  0  0  0  0  0  0  0  0  0  0
   48.0175   32.2864   48.6033 H   0  0  0  0  0  0  0  0  0  0  0  0
   45.9515   29.8738   49.0481 H   0  0  0  0  0  0  0  0  0  0  0  0
   44.2013   30.0406   48.8077 H   0  0  0  0  0  0  0  0  0  0  0  0
   45.0958   27.6544   48.4958 H   0  0  0  0  0  0  0  0  0  0  0  0
   44.2130   28.2964   47.0692 H   0  0  0  0  0  0  0  0  0  0  0  0
   46.0087   28.2528   47.0692 H   0  0  0  0  0  0  0  0  0  0  0  0
  1  6  2  0
  2  3  2  0
  2  1  1  0
  3  4  1  0
  4  5  2  0
  5  8  1  0
  6  5  1  0
  7  1  1  0
  8 10  1  0
 10  9  2  0
 11 10  1  0
 12 10  1  0
 12 13  1  0
 14 13  1  0
  2 15  1  0
  3 16  1  0
  7 17  1  0
 11 18  1  0
 13 19  1  0
 13 20  1  0
 14 21  1  0
 14 22  1  0
 14 23  1  0
M  ISO  8  15  14  16  14  17   3  18   3  19   8  20   8  21   8  22   8
M  ISO  1  23   8
M  END
>  <minimizedAffinity>  (1) 
-4.37204313

>  <minimizedRMSD>  (1) 
1.41809177

$$$$
