
     RDKit          3D

 39 41  0  0  1  0  0  0  0  0999 V2000
   48.4550   30.1590   48.5810 C   0  0  2  0  0  0  0  0  0  0  0  0
   47.0130   29.8380   48.5200 C   0  0  2  0  0  0  0  0  0  0  0  0
   46.9070   28.9420   47.3400 C   0  0  0  0  0  0  0  0  0  0  0  0
   48.1060   28.2670   47.2190 O   0  0  0  0  0  0  0  0  0  0  0  0
   49.0070   28.8100   48.0780 C   0  0  0  0  0  0  0  0  0  0  0  0
   46.1900   30.9400   48.4330 O   0  0  0  0  0  0  0  0  0  0  0  0
   47.8280   32.8750   48.0060 O   0  0  0  0  0  0  0  0  0  0  0  0
   46.8040   32.0120   47.3170 P   0  0  1  0  0  0  0  0  0  0  0  0
   47.5690   31.1550   46.0720 O   0  0  0  0  0  0  0  0  0  0  0  0
   45.5940   33.0410   46.6770 O   0  0  0  0  0  0  0  0  0  0  0  0
   45.0040   35.4410   44.1050 C   0  0  0  0  0  0  0  0  0  0  0  0
   45.9970   35.1640   43.1300 C   0  0  0  0  0  0  0  0  0  0  0  0
   46.8790   34.1050   43.4140 C   0  0  0  0  0  0  0  0  0  0  0  0
   46.7190   33.4330   44.5790 N   0  0  0  0  0  0  0  0  0  0  0  0
   45.7600   33.7330   45.4740 C   0  0  0  0  0  0  0  0  0  0  0  0
   44.9090   34.7350   45.2290 N   0  0  0  0  0  0  0  0  0  0  0  0
   44.1370   36.4800   43.8300 O   0  0  0  0  0  0  0  0  0  0  0  0
   48.8800   30.4430   49.8700 O   0  0  0  0  0  0  0  0  0  0  0  0
   51.6970   32.7300   50.5740 N   0  0  0  0  0  0  0  0  0  0  0  0
   50.5710   32.3030   49.9860 C   0  0  0  0  0  0  0  0  0  0  0  0
   49.9880   31.0950   50.3030 C   0  0  0  0  0  0  0  0  0  0  0  0
   50.6470   30.3380   51.2790 C   0  0  0  0  0  0  0  0  0  0  0  0
   50.2880   29.1950   51.7260 O   0  0  0  0  0  0  0  0  0  0  0  0
   51.7940   30.7850   51.8700 N   0  0  0  0  0  0  0  0  0  0  0  0
   52.3040   31.9760   51.5090 C   0  0  0  0  0  0  0  0  0  0  0  0
   53.3580   32.4420   52.0170 O   0  0  0  0  0  0  0  0  0  0  0  0
   48.7671   31.0500   48.0165 H   0  0  0  0  0  0  0  0  0  0  0  0
   46.6634   29.3667   49.4504 H   0  0  0  0  0  0  0  0  0  0  0  0
   46.0859   28.2248   47.4862 H   0  0  0  0  0  0  0  0  0  0  0  0
   46.6980   29.5242   46.4304 H   0  0  0  0  0  0  0  0  0  0  0  0
   49.1619   28.1319   48.9302 H   0  0  0  0  0  0  0  0  0  0  0  0
   49.9685   28.9643   47.5665 H   0  0  0  0  0  0  0  0  0  0  0  0
   48.1748   30.4763   46.4624 H   0  0  0  0  0  0  0  0  0  0  0  0
   46.0734   35.7469   42.2003 H   0  0  0  0  0  0  0  0  0  0  0  0
   47.6771   33.8303   42.7087 H   0  0  0  0  0  0  0  0  0  0  0  0
   44.2279   36.9906   42.9867 H   0  0  0  0  0  0  0  0  0  0  0  0
   52.1000   33.6401   50.3089 H   0  0  0  0  0  0  0  0  0  0  0  0
   50.0957   32.9384   49.2242 H   0  0  0  0  0  0  0  0  0  0  0  0
   52.2649   30.2145   52.5867 H   0  0  0  0  0  0  0  0  0  0  0  0
  1 18  1  0
  2  1  1  0
  3  2  1  0
  4  3  1  0
  4  5  1  0
  5  1  1  0
  6  2  1  0
  8  7  2  0
  8  6  1  0
  9  8  1  0
 10  8  1  0
 11 16  2  0
 12 13  2  0
 12 11  1  0
 13 14  1  0
 14 15  2  0
 15 10  1  0
 16 15  1  0
 17 11  1  0
 18 21  1  0
 19 25  1  0
 20 21  2  0
 20 19  1  0
 21 22  1  0
 22 23  2  0
 22 24  1  0
 25 24  1  0
 25 26  2  0
  1 27  1  6
  2 28  1  1
  3 29  1  0
  3 30  1  0
  5 31  1  0
  5 32  1  0
  9 33  1  0
 12 34  1  0
 13 35  1  0
 17 36  1  0
 19 37  1  0
 20 38  1  0
 24 39  1  0
M  ISO  8  27  13  28  13  29  13  30  13  31  13  32  13  33   3  34  14
M  ISO  5  35  14  36   3  37   9  38  14  39   9
M  END
>  <minimizedAffinity>  (1) 
-5.49118614

>  <minimizedRMSD>  (1) 
1.51809645

$$$$
