
     RDKit          3D

 45 47  0  0  1  0  0  0  0  0999 V2000
   47.0730   30.5310   48.3050 C   0  0  2  0  0  0  0  0  0  0  0  0
   45.6450   30.8270   48.5390 C   0  0  2  0  0  0  0  0  0  0  0  0
   44.9360   29.9030   47.6200 C   0  0  0  0  0  0  0  0  0  0  0  0
   45.7230   28.7750   47.4750 O   0  0  0  0  0  0  0  0  0  0  0  0
   46.9380   29.0120   48.0280 C   0  0  0  0  0  0  0  0  0  0  0  0
   45.3180   32.1500   48.3440 O   0  0  0  0  0  0  0  0  0  0  0  0
   47.2830   32.9050   46.8770 O   0  0  0  0  0  0  0  0  0  0  0  0
   45.8040   32.6370   46.8270 P   0  0  1  0  0  0  0  0  0  0  0  0
   45.5170   31.3940   45.7140 O   0  0  0  0  0  0  0  0  0  0  0  0
   45.0380   34.0790   46.3290 O   0  0  0  0  0  0  0  0  0  0  0  0
   44.9760   36.3200   43.5480 C   0  0  0  0  0  0  0  0  0  0  0  0
   45.0300   35.4610   42.4080 C   0  0  0  0  0  0  0  0  0  0  0  0
   45.0890   34.0790   42.6710 C   0  0  0  0  0  0  0  0  0  0  0  0
   45.0890   33.6610   43.9540 N   0  0  0  0  0  0  0  0  0  0  0  0
   45.0370   34.5060   44.9980 C   0  0  0  0  0  0  0  0  0  0  0  0
   44.9810   35.8320   44.7900 N   0  0  0  0  0  0  0  0  0  0  0  0
   44.9180   37.6690   43.3120 O   0  0  0  0  0  0  0  0  0  0  0  0
   47.9100   30.7750   49.3600 O   0  0  0  0  0  0  0  0  0  0  0  0
   49.2330   30.7270   49.2650 C   0  0  0  0  0  0  0  0  0  0  0  0
   49.7350   29.8830   50.4420 C   0  0  0  0  0  0  0  0  0  0  0  0
   51.2100   29.6860   50.3470 C   0  0  0  0  0  0  0  0  0  0  0  0
   51.8890   31.0220   50.3840 C   0  0  0  0  0  0  0  0  0  0  0  0
   50.8760   32.1180   50.5820 C   0  0  0  0  0  0  0  0  0  0  0  0
   49.8120   32.1040   49.5210 C   0  0  0  0  0  0  0  0  0  0  0  0
   47.5327   31.1559   47.5251 H   0  0  0  0  0  0  0  0  0  0  0  0
   45.3579   30.6696   49.5891 H   0  0  0  0  0  0  0  0  0  0  0  0
   43.9593   29.6274   48.0445 H   0  0  0  0  0  0  0  0  0  0  0  0
   44.7638   30.3829   46.6453 H   0  0  0  0  0  0  0  0  0  0  0  0
   47.0297   28.4545   48.9718 H   0  0  0  0  0  0  0  0  0  0  0  0
   47.7318   28.6855   47.3401 H   0  0  0  0  0  0  0  0  0  0  0  0
   45.3230   30.5538   46.2004 H   0  0  0  0  0  0  0  0  0  0  0  0
   45.0257   35.8571   41.3818 H   0  0  0  0  0  0  0  0  0  0  0  0
   45.1343   33.3533   41.8456 H   0  0  0  0  0  0  0  0  0  0  0  0
   44.9154   38.0092   42.3823 H   0  0  0  0  0  0  0  0  0  0  0  0
   49.5151   30.3399   48.2747 H   0  0  0  0  0  0  0  0  0  0  0  0
   49.4978   30.3979   51.3847 H   0  0  0  0  0  0  0  0  0  0  0  0
   49.2407   28.9007   50.4138 H   0  0  0  0  0  0  0  0  0  0  0  0
   51.4530   29.1758   49.4033 H   0  0  0  0  0  0  0  0  0  0  0  0
   51.5560   29.0720   51.1915 H   0  0  0  0  0  0  0  0  0  0  0  0
   52.6098   31.0398   51.2147 H   0  0  0  0  0  0  0  0  0  0  0  0
   52.4102   31.1849   49.4291 H   0  0  0  0  0  0  0  0  0  0  0  0
   50.3988   31.9865   51.5643 H   0  0  0  0  0  0  0  0  0  0  0  0
   51.4033   33.0814   50.5197 H   0  0  0  0  0  0  0  0  0  0  0  0
   50.2499   32.4776   48.5836 H   0  0  0  0  0  0  0  0  0  0  0  0
   48.9891   32.7401   49.8790 H   0  0  0  0  0  0  0  0  0  0  0  0
  1  2  1  0
  1 18  1  0
  3  2  1  0
  4  3  1  0
  4  5  1  0
  5  1  1  0
  6  2  1  0
  8  7  2  0
  8  6  1  0
  9  8  1  0
 10  8  1  0
 11 16  2  0
 12 13  2  0
 12 11  1  0
 13 14  1  0
 14 15  2  0
 15 10  1  0
 16 15  1  0
 17 11  1  0
 19 18  1  0
 19 24  1  0
 19 20  1  0
 21 22  1  0
 21 20  1  0
 22 23  1  0
 24 23  1  0
  1 25  1  6
  2 26  1  1
  3 27  1  0
  3 28  1  0
  5 29  1  0
  5 30  1  0
  9 31  1  0
 12 32  1  0
 13 33  1  0
 17 34  1  0
 19 35  1  0
 20 36  1  0
 20 37  1  0
 21 38  1  0
 21 39  1  0
 22 40  1  0
 22 41  1  0
 23 42  1  0
 23 43  1  0
 24 44  1  0
 24 45  1  0
M  ISO  8  25  13  26  13  27  13  28  13  29  13  30  13  31   3  32  14
M  ISO  8  33  14  34   3  35  13  36  13  37  13  38  13  39  13  40  13
M  ISO  5  41  13  42  13  43  13  44  13  45  13
M  END
>  <minimizedAffinity>  (1) 
-5.44549608

>  <minimizedRMSD>  (1) 
1.28566337

$$$$
