
     RDKit          3D

 30 32  0  0  1  0  0  0  0  0999 V2000
   45.8750   34.5450   41.4570 C   0  0  1  0  0  0  0  0  0  0  0  0
   46.3950   35.2570   42.5970 C   0  0  0  0  0  0  0  0  0  0  0  0
   46.3090   33.7650   42.6930 C   0  0  1  0  0  0  0  0  0  0  0  0
   43.5800   35.5330   41.5970 C   0  0  0  0  0  0  0  0  0  0  0  0
   44.4280   34.5290   41.0980 C   0  0  0  0  0  0  0  0  0  0  0  0
   43.8640   33.5640   40.3000 C   0  0  0  0  0  0  0  0  0  0  0  0
   42.5350   33.6100   40.0230 N   0  0  0  0  0  0  0  0  0  0  0  0
   41.7440   34.5980   40.5220 C   0  0  0  0  0  0  0  0  0  0  0  0
   42.2590   35.5850   41.3250 N   0  0  0  0  0  0  0  0  0  0  0  0
   45.2500   33.1910   43.5740 C   0  0  0  0  0  0  0  0  0  0  0  0
   45.4290   30.4140   43.7550 F   0  0  0  0  0  0  0  0  0  0  0  0
   45.8950   31.1570   44.8140 C   0  0  0  0  0  0  0  0  0  0  0  0
   45.8140   32.5260   44.7620 C   0  0  0  0  0  0  0  0  0  0  0  0
   46.2740   33.3010   45.8260 C   0  0  0  0  0  0  0  0  0  0  0  0
   46.8180   32.7090   46.9480 C   0  0  0  0  0  0  0  0  0  0  0  0
   46.8810   31.3380   46.9660 C   0  0  0  0  0  0  0  0  0  0  0  0
   46.4340   30.5330   45.9250 C   0  0  0  0  0  0  0  0  0  0  0  0
   46.1305   34.5672   40.3873 H   0  0  0  0  0  0  0  0  0  0  0  0
   47.3806   35.7410   42.5316 H   0  0  0  0  0  0  0  0  0  0  0  0
   46.0186   36.0844   43.2165 H   0  0  0  0  0  0  0  0  0  0  0  0
   47.0006   32.9358   42.9030 H   0  0  0  0  0  0  0  0  0  0  0  0
   44.0136   36.3133   42.2397 H   0  0  0  0  0  0  0  0  0  0  0  0
   44.4863   32.7567   39.8866 H   0  0  0  0  0  0  0  0  0  0  0  0
   40.6716   34.6061   40.2774 H   0  0  0  0  0  0  0  0  0  0  0  0
   44.5857   34.0031   43.9046 H   0  0  0  0  0  0  0  0  0  0  0  0
   44.7006   32.4355   42.9932 H   0  0  0  0  0  0  0  0  0  0  0  0
   46.2025   34.3973   45.7706 H   0  0  0  0  0  0  0  0  0  0  0  0
   47.1856   33.3107   47.7923 H   0  0  0  0  0  0  0  0  0  0  0  0
   47.3090   30.8493   47.8536 H   0  0  0  0  0  0  0  0  0  0  0  0
   46.5063   29.4369   45.9824 H   0  0  0  0  0  0  0  0  0  0  0  0
  1  2  1  0
  1  3  1  0
  2  3  1  0
  3 10  1  0
  5  1  1  0
  5  4  2  0
  6  5  1  0
  7  6  2  0
  7  8  1  0
  8  9  2  0
  9  4  1  0
 10 13  1  0
 11 12  1  0
 12 17  2  0
 13 12  1  0
 13 14  2  0
 14 15  1  0
 15 16  2  0
 17 16  1  0
  1 18  1  6
  2 19  1  0
  2 20  1  0
  3 21  1  6
  4 22  1  0
  6 23  1  0
  8 24  1  0
 10 25  1  0
 10 26  1  0
 14 27  1  0
 15 28  1  0
 16 29  1  0
 17 30  1  0
M  ISO  8  18  13  19  13  20  13  21  13  22  14  23  14  24  14  25   8
M  ISO  5  26   8  27  14  28  14  29  14  30  14
M  END
>  <minimizedAffinity>  (1) 
-4.17232943

>  <minimizedRMSD>  (1) 
5.81098366

$$$$
