
     RDKit          3D

 21 22  0  0  1  0  0  0  0  0999 V2000
   47.2740   33.6160   41.5540 C   0  0  1  0  0  0  0  0  0  0  0  0
   47.6210   34.4170   40.4020 C   0  0  0  0  0  0  0  0  0  0  0  0
   48.6990   34.1410   41.3810 C   0  0  1  0  0  0  0  0  0  0  0  0
   45.7010   35.3510   42.4940 C   0  0  0  0  0  0  0  0  0  0  0  0
   46.4670   34.1560   42.6800 C   0  0  0  0  0  0  0  0  0  0  0  0
   46.4480   33.5310   43.9150 C   0  0  0  0  0  0  0  0  0  0  0  0
   45.6860   34.1020   44.8990 N   0  0  0  0  0  0  0  0  0  0  0  0
   44.9670   35.2400   44.6930 C   0  0  0  0  0  0  0  0  0  0  0  0
   44.9620   35.8840   43.4870 N   0  0  0  0  0  0  0  0  0  0  0  0
   49.1900   35.1860   42.3030 C   0  0  0  0  0  0  0  0  0  0  0  0
   49.3310   36.4180   41.6620 O   0  0  0  0  0  0  0  0  0  0  0  0
   46.7854   32.6376   41.6726 H   0  0  0  0  0  0  0  0  0  0  0  0
   47.2201   35.4373   40.3110 H   0  0  0  0  0  0  0  0  0  0  0  0
   47.5240   34.2692   39.3163 H   0  0  0  0  0  0  0  0  0  0  0  0
   49.7138   33.7205   41.3224 H   0  0  0  0  0  0  0  0  0  0  0  0
   45.7160   35.8482   41.5129 H   0  0  0  0  0  0  0  0  0  0  0  0
   47.0228   32.6113   44.0988 H   0  0  0  0  0  0  0  0  0  0  0  0
   44.3727   35.6533   45.5213 H   0  0  0  0  0  0  0  0  0  0  0  0
   48.4742   35.2953   43.1310 H   0  0  0  0  0  0  0  0  0  0  0  0
   50.1789   34.8781   42.6735 H   0  0  0  0  0  0  0  0  0  0  0  0
   49.4131   37.1351   42.3396 H   0  0  0  0  0  0  0  0  0  0  0  0
  1  5  1  0
  2  3  1  0
  2  1  1  0
  3  1  1  0
  3 10  1  0
  4  5  2  0
  4  9  1  0
  5  6  1  0
  6  7  2  0
  8  7  1  0
  9  8  2  0
 11 10  1  0
  1 12  1  6
  2 13  1  0
  2 14  1  0
  3 15  1  6
  4 16  1  0
  6 17  1  0
  8 18  1  0
 10 19  1  0
 10 20  1  0
 11 21  1  0
M  ISO  8  12  13  13  13  14  13  15  13  16  14  17  14  18  14  19   8
M  ISO  2  20   8  21   3
M  END
>  <minimizedAffinity>  (1) 
-3.52032208

>  <minimizedRMSD>  (1) 
0.507849455

$$$$
