
     RDKit          3D

 27 29  0  0  1  0  0  0  0  0999 V2000
   47.0920   34.2670   40.3320 C   0  0  1  0  0  0  0  0  0  0  0  0
   48.3580   34.9650   40.2680 C   0  0  0  0  0  0  0  0  0  0  0  0
   48.3840   33.5040   40.0390 C   0  0  1  0  0  0  0  0  0  0  0  0
   46.6570   34.8290   42.7520 C   0  0  0  0  0  0  0  0  0  0  0  0
   46.4080   33.9980   41.6240 C   0  0  0  0  0  0  0  0  0  0  0  0
   45.5260   32.9410   41.7600 C   0  0  0  0  0  0  0  0  0  0  0  0
   44.9390   32.7520   42.9740 N   0  0  0  0  0  0  0  0  0  0  0  0
   45.1920   33.5630   44.0440 C   0  0  0  0  0  0  0  0  0  0  0  0
   46.0590   34.6150   43.9440 N   0  0  0  0  0  0  0  0  0  0  0  0
   48.9020   32.5600   41.0490 C   0  0  0  0  0  0  0  0  0  0  0  0
   50.1970   32.0070   40.5390 C   0  0  0  0  0  0  0  0  0  0  0  0
   50.4670   31.3890   39.3350 C   0  0  0  0  0  0  0  0  0  0  0  0
   51.7860   31.0490   39.3020 N   0  0  0  0  0  0  0  0  0  0  0  0
   52.3500   31.4470   40.4770 C   0  0  0  0  0  0  0  0  0  0  0  0
   51.3800   32.0220   41.2110 N   0  0  0  0  0  0  0  0  0  0  0  0
   46.1187   34.4197   39.8427 H   0  0  0  0  0  0  0  0  0  0  0  0
   48.5579   35.6482   39.4294 H   0  0  0  0  0  0  0  0  0  0  0  0
   48.8916   35.6356   40.9576 H   0  0  0  0  0  0  0  0  0  0  0  0
   48.7780   32.8517   39.2457 H   0  0  0  0  0  0  0  0  0  0  0  0
   47.3575   35.6709   42.6501 H   0  0  0  0  0  0  0  0  0  0  0  0
   45.3057   32.2738   40.9136 H   0  0  0  0  0  0  0  0  0  0  0  0
   44.6894   33.3660   45.0024 H   0  0  0  0  0  0  0  0  0  0  0  0
   49.0687   33.0852   42.0010 H   0  0  0  0  0  0  0  0  0  0  0  0
   48.1798   31.7485   41.2218 H   0  0  0  0  0  0  0  0  0  0  0  0
   49.7372   31.2017   38.5336 H   0  0  0  0  0  0  0  0  0  0  0  0
   52.2708   30.5752   38.5265 H   0  0  0  0  0  0  0  0  0  0  0  0
   53.4026   31.3215   40.7707 H   0  0  0  0  0  0  0  0  0  0  0  0
  1  5  1  0
  2  1  1  0
  3  2  1  0
  3  1  1  0
  3 10  1  0
  4  9  2  0
  5  6  2  0
  5  4  1  0
  6  7  1  0
  7  8  2  0
  9  8  1  0
 11 10  1  0
 11 15  1  0
 12 11  2  0
 13 12  1  0
 13 14  1  0
 14 15  2  0
  1 16  1  6
  2 17  1  0
  2 18  1  0
  3 19  1  6
  4 20  1  0
  6 21  1  0
  8 22  1  0
 10 23  1  0
 10 24  1  0
 12 25  1  0
 13 26  1  0
 14 27  1  0
M  ISO  8  16  13  17  13  18  13  19  13  20  14  21  14  22  14  23   8
M  ISO  4  24   8  25  14  26   9  27  14
M  END
>  <minimizedAffinity>  (1) 
-3.48164558

>  <minimizedRMSD>  (1) 
3.16764903

$$$$
