
     RDKit          3D

 41 43  0  0  1  0  0  0  0  0999 V2000
   46.6260   33.0900   44.3380 C   0  0  0  0  0  0  0  0  0  0  0  0
   46.1070   32.1890   45.3230 N   0  0  0  0  0  0  0  0  0  0  0  0
   45.9480   32.7300   46.6190 C   0  0  0  0  0  0  0  0  0  0  0  0
   47.1770   32.5130   47.5090 C   0  0  0  0  0  0  0  0  0  0  0  0
   47.2590   31.0160   47.7210 C   0  0  0  0  0  0  0  0  0  0  0  0
   47.5400   30.4350   46.3470 C   0  0  0  0  0  0  0  0  0  0  0  0
   46.5680   30.8600   45.2960 C   0  0  1  0  0  0  0  0  0  0  0  0
   45.4020   29.8630   45.3630 C   0  0  0  0  0  0  0  0  0  0  0  0
   45.8610   28.4400   45.3880 C   0  0  0  0  0  0  0  0  0  0  0  0
   45.8060   35.3110   43.2370 C   0  0  1  0  0  0  0  0  0  0  0  0
   44.6650   34.5910   43.6640 C   0  0  0  0  0  0  0  0  0  0  0  0
   45.8970   34.3720   44.4590 C   0  0  1  0  0  0  0  0  0  0  0  0
   46.0510   34.2170   41.0030 C   0  0  0  0  0  0  0  0  0  0  0  0
   46.6540   34.9600   42.0610 C   0  0  0  0  0  0  0  0  0  0  0  0
   47.9750   35.3150   41.9650 C   0  0  0  0  0  0  0  0  0  0  0  0
   48.6580   34.9320   40.8400 N   0  0  0  0  0  0  0  0  0  0  0  0
   48.0600   34.2220   39.8400 C   0  0  0  0  0  0  0  0  0  0  0  0
   46.7440   33.8520   39.9040 N   0  0  0  0  0  0  0  0  0  0  0  0
   46.4768   32.6696   43.3325 H   0  0  0  0  0  0  0  0  0  0  0  0
   47.7032   33.2476   44.4952 H   0  0  0  0  0  0  0  0  0  0  0  0
   45.7662   33.8111   46.5285 H   0  0  0  0  0  0  0  0  0  0  0  0
   45.1011   32.2116   47.0923 H   0  0  0  0  0  0  0  0  0  0  0  0
   48.0847   32.8814   47.0086 H   0  0  0  0  0  0  0  0  0  0  0  0
   47.0945   33.0576   48.4611 H   0  0  0  0  0  0  0  0  0  0  0  0
   48.0732   30.7690   48.4182 H   0  0  0  0  0  0  0  0  0  0  0  0
   46.3342   30.6110   48.1577 H   0  0  0  0  0  0  0  0  0  0  0  0
   48.5461   30.7532   46.0363 H   0  0  0  0  0  0  0  0  0  0  0  0
   47.4502   29.3426   46.4396 H   0  0  0  0  0  0  0  0  0  0  0  0
   47.1118   30.8466   44.3399 H   0  0  0  0  0  0  0  0  0  0  0  0
   44.8210   30.0616   46.2757 H   0  0  0  0  0  0  0  0  0  0  0  0
   44.7944   30.0005   44.4564 H   0  0  0  0  0  0  0  0  0  0  0  0
   45.9682   28.1076   46.4311 H   0  0  0  0  0  0  0  0  0  0  0  0
   45.1214   27.8071   44.8757 H   0  0  0  0  0  0  0  0  0  0  0  0
   46.8310   28.3585   44.8757 H   0  0  0  0  0  0  0  0  0  0  0  0
   45.9468   36.3752   42.9970 H   0  0  0  0  0  0  0  0  0  0  0  0
   43.8233   35.1362   44.1160 H   0  0  0  0  0  0  0  0  0  0  0  0
   43.9710   33.9093   43.1504 H   0  0  0  0  0  0  0  0  0  0  0  0
   46.1946   34.4547   45.5147 H   0  0  0  0  0  0  0  0  0  0  0  0
   44.9913   33.9336   41.0853 H   0  0  0  0  0  0  0  0  0  0  0  0
   48.4696   35.8875   42.7635 H   0  0  0  0  0  0  0  0  0  0  0  0
   48.6524   33.9390   38.9574 H   0  0  0  0  0  0  0  0  0  0  0  0
  1 12  1  0
  1  2  1  0
  2  3  1  0
  3  4  1  0
  4  5  1  0
  6  5  1  0
  7  2  1  0
  7  8  1  0
  7  6  1  0
  8  9  1  0
 10 11  1  0
 10 12  1  0
 11 12  1  0
 13 14  2  0
 14 10  1  0
 15 14  1  0
 16 15  2  0
 17 18  2  0
 17 16  1  0
 18 13  1  0
  1 19  1  0
  1 20  1  0
  3 21  1  0
  3 22  1  0
  4 23  1  0
  4 24  1  0
  5 25  1  0
  5 26  1  0
  6 27  1  0
  6 28  1  0
  7 29  1  6
  8 30  1  0
  8 31  1  0
  9 32  1  0
  9 33  1  0
  9 34  1  0
 10 35  1  1
 11 36  1  0
 11 37  1  0
 12 38  1  1
 13 39  1  0
 15 40  1  0
 17 41  1  0
M  ISO  8  19   8  20   8  21  13  22  13  23  13  24  13  25  13  26  13
M  ISO  8  27  13  28  13  29  13  30   8  31   8  32   8  33   8  34   8
M  ISO  7  35  13  36  13  37  13  38  13  39  14  40  14  41  14
M  END
>  <minimizedAffinity>  (1) 
-4.19220495

>  <minimizedRMSD>  (1) 
2.25273347

$$$$
