
     RDKit          3D

 48 51  0  0  1  0  0  0  0  0999 V2000
   45.7670   35.4340   43.2330 C   0  0  1  0  0  0  0  0  0  0  0  0
   44.6490   34.9280   43.9030 C   0  0  0  0  0  0  0  0  0  0  0  0
   45.9380   34.6070   44.5400 C   0  0  1  0  0  0  0  0  0  0  0  0
   45.5640   34.1330   41.1150 C   0  0  0  0  0  0  0  0  0  0  0  0
   46.4070   34.8690   42.0070 C   0  0  0  0  0  0  0  0  0  0  0  0
   47.7240   35.0240   41.7160 C   0  0  0  0  0  0  0  0  0  0  0  0
   48.1810   34.4520   40.5580 N   0  0  0  0  0  0  0  0  0  0  0  0
   47.3780   33.7580   39.7220 C   0  0  0  0  0  0  0  0  0  0  0  0
   46.0370   33.5760   39.9770 N   0  0  0  0  0  0  0  0  0  0  0  0
   48.4760   30.9590   40.0060 Cl  0  0  0  0  0  0  0  0  0  0  0  0
   48.5020   31.9130   38.5280 C   0  0  0  0  0  0  0  0  0  0  0  0
   47.9700   33.1880   38.5120 C   0  0  0  0  0  0  0  0  0  0  0  0
   47.9680   33.9670   37.3850 C   0  0  0  0  0  0  0  0  0  0  0  0
   48.5240   33.4560   36.2140 C   0  0  0  0  0  0  0  0  0  0  0  0
   49.0520   32.1750   36.2560 C   0  0  0  0  0  0  0  0  0  0  0  0
   49.7470   31.5320   34.7970 Cl  0  0  0  0  0  0  0  0  0  0  0  0
   49.0640   31.3710   37.3840 C   0  0  0  0  0  0  0  0  0  0  0  0
   46.4930   33.2320   44.4590 C   0  0  0  0  0  0  0  0  0  0  0  0
   45.8860   32.4730   45.4940 N   0  0  0  0  0  0  0  0  0  0  0  0
   45.9230   32.9840   46.7960 C   0  0  0  0  0  0  0  0  0  0  0  0
   47.1730   32.4910   47.5540 C   0  0  0  0  0  0  0  0  0  0  0  0
   46.9820   31.0150   47.7640 C   0  0  0  0  0  0  0  0  0  0  0  0
   46.9150   30.4010   46.3830 C   0  0  0  0  0  0  0  0  0  0  0  0
   45.9510   31.0750   45.4490 C   0  0  2  0  0  0  0  0  0  0  0  0
   46.2770   30.5610   44.0540 C   0  0  0  0  0  0  0  0  0  0  0  0
   45.9737   36.4399   42.8387 H   0  0  0  0  0  0  0  0  0  0  0  0
   43.9651   35.6283   44.4049 H   0  0  0  0  0  0  0  0  0  0  0  0
   43.8056   34.3027   43.5750 H   0  0  0  0  0  0  0  0  0  0  0  0
   46.3948   34.7390   45.5319 H   0  0  0  0  0  0  0  0  0  0  0  0
   44.4985   34.0167   41.3626 H   0  0  0  0  0  0  0  0  0  0  0  0
   48.3959   35.5853   42.3820 H   0  0  0  0  0  0  0  0  0  0  0  0
   47.5351   34.9780   37.4042 H   0  0  0  0  0  0  0  0  0  0  0  0
   48.5433   34.0490   35.2877 H   0  0  0  0  0  0  0  0  0  0  0  0
   49.4955   30.3592   37.3718 H   0  0  0  0  0  0  0  0  0  0  0  0
   46.2597   32.7884   43.4798 H   0  0  0  0  0  0  0  0  0  0  0  0
   47.5869   33.2449   44.5741 H   0  0  0  0  0  0  0  0  0  0  0  0
   45.9417   34.0829   46.7497 H   0  0  0  0  0  0  0  0  0  0  0  0
   45.0294   32.6334   47.3331 H   0  0  0  0  0  0  0  0  0  0  0  0
   48.0784   32.6772   46.9578 H   0  0  0  0  0  0  0  0  0  0  0  0
   47.2953   33.0192   48.5111 H   0  0  0  0  0  0  0  0  0  0  0  0
   47.8291   30.5966   48.3273 H   0  0  0  0  0  0  0  0  0  0  0  0
   46.0698   30.8056   48.3420 H   0  0  0  0  0  0  0  0  0  0  0  0
   47.9187   30.4506   45.9357 H   0  0  0  0  0  0  0  0  0  0  0  0
   46.5542   29.3703   46.5155 H   0  0  0  0  0  0  0  0  0  0  0  0
   44.9357   30.8092   45.7783 H   0  0  0  0  0  0  0  0  0  0  0  0
   46.8647   29.6345   44.1327 H   0  0  0  0  0  0  0  0  0  0  0  0
   45.3425   30.3575   43.5106 H   0  0  0  0  0  0  0  0  0  0  0  0
   46.8594   31.3196   43.5106 H   0  0  0  0  0  0  0  0  0  0  0  0
  1  2  1  0
  1  3  1  0
  2  3  1  0
  4  5  2  0
  5  1  1  0
  6  5  1  0
  7  6  2  0
  8  9  2  0
  8  7  1  0
  9  4  1  0
 11 10  1  0
 12 11  2  0
 12  8  1  0
 13 12  1  0
 14 15  1  0
 14 13  2  0
 15 17  2  0
 16 15  1  0
 17 11  1  0
 18  3  1  0
 18 19  1  0
 19 20  1  0
 20 21  1  0
 21 22  1  0
 23 22  1  0
 24 19  1  0
 24 23  1  0
 25 24  1  0
  1 26  1  1
  2 27  1  0
  2 28  1  0
  3 29  1  1
  4 30  1  0
  6 31  1  0
 13 32  1  0
 14 33  1  0
 17 34  1  0
 18 35  1  0
 18 36  1  0
 20 37  1  0
 20 38  1  0
 21 39  1  0
 21 40  1  0
 22 41  1  0
 22 42  1  0
 23 43  1  0
 23 44  1  0
 24 45  1  1
 25 46  1  0
 25 47  1  0
 25 48  1  0
M  ISO  8  26  13  27  13  28  13  29  13  30  14  31  14  32  14  33  14
M  ISO  8  34  14  35   8  36   8  37  13  38  13  39  13  40  13  41  13
M  ISO  7  42  13  43  13  44  13  45  13  46   8  47   8  48   8
M  END
>  <minimizedAffinity>  (1) 
-5.19049644

>  <minimizedRMSD>  (1) 
2.90100718

$$$$
