
     RDKit          3D

 40 42  0  0  1  0  0  0  0  0999 V2000
   48.4140   32.1600   41.9420 C   0  0  0  0  0  0  0  0  0  0  0  0
   48.0960   33.3550   42.4090 C   0  0  0  0  0  0  0  0  0  0  0  0
   49.0620   32.0640   40.6400 C   0  0  0  0  0  0  0  0  0  0  0  0
   50.3970   31.6310   40.6250 C   0  0  0  0  0  0  0  0  0  0  0  0
   51.0610   31.5230   39.3960 C   0  0  0  0  0  0  0  0  0  0  0  0
   50.3640   31.8490   38.2770 N   0  0  0  0  0  0  0  0  0  0  0  0
   49.0870   32.2600   38.3280 C   0  0  0  0  0  0  0  0  0  0  0  0
   48.4690   32.3580   39.4970 N   0  0  0  0  0  0  0  0  0  0  0  0
   48.7310   34.8770   37.5430 O   0  0  0  0  0  0  0  0  0  0  0  0
   47.8600   34.0070   37.2250 C   0  0  0  0  0  0  0  0  0  0  0  0
   48.3430   32.6130   37.0720 C   0  0  2  0  0  0  0  0  0  0  0  0
   47.0920   31.8300   36.8790 C   0  0  0  0  0  0  0  0  0  0  0  0
   45.9950   32.7300   37.3510 C   0  0  0  0  0  0  0  0  0  0  0  0
   46.4670   34.0690   36.9700 N   0  0  0  0  0  0  0  0  0  0  0  0
   47.4360   33.5270   43.7220 C   0  0  0  0  0  0  0  0  0  0  0  0
   44.6410   35.8220   43.8360 C   0  0  1  0  0  0  0  0  0  0  0  0
   45.8100   35.2930   42.9920 C   0  0  0  0  0  0  0  0  0  0  0  0
   45.9640   33.9310   43.5570 C   0  0  2  0  0  0  0  0  0  0  0  0
   45.2830   33.8450   44.7420 O   0  0  0  0  0  0  0  0  0  0  0  0
   44.9000   35.1030   45.1360 C   0  0  0  0  0  0  0  0  0  0  0  0
   44.7420   37.2080   43.9490 O   0  0  0  0  0  0  0  0  0  0  0  0
   48.1935   31.2541   42.5257 H   0  0  0  0  0  0  0  0  0  0  0  0
   48.3281   34.2450   41.8056 H   0  0  0  0  0  0  0  0  0  0  0  0
   50.9137   31.3804   41.5632 H   0  0  0  0  0  0  0  0  0  0  0  0
   52.1069   31.1870   39.3396 H   0  0  0  0  0  0  0  0  0  0  0  0
   49.0348   32.4287   36.2369 H   0  0  0  0  0  0  0  0  0  0  0  0
   46.9544   31.5767   35.8174 H   0  0  0  0  0  0  0  0  0  0  0  0
   47.1113   30.8782   37.4301 H   0  0  0  0  0  0  0  0  0  0  0  0
   45.0456   32.4898   36.8501 H   0  0  0  0  0  0  0  0  0  0  0  0
   45.7947   32.6352   38.4284 H   0  0  0  0  0  0  0  0  0  0  0  0
   45.9182   34.8609   36.6058 H   0  0  0  0  0  0  0  0  0  0  0  0
   47.4873   32.5781   44.2760 H   0  0  0  0  0  0  0  0  0  0  0  0
   47.9563   34.3261   44.2704 H   0  0  0  0  0  0  0  0  0  0  0  0
   43.6296   35.6481   43.4400 H   0  0  0  0  0  0  0  0  0  0  0  0
   46.7187   35.8962   43.1353 H   0  0  0  0  0  0  0  0  0  0  0  0
   45.6372   35.3195   41.9060 H   0  0  0  0  0  0  0  0  0  0  0  0
   45.5321   33.2150   42.8423 H   0  0  0  0  0  0  0  0  0  0  0  0
   45.7018   35.5970   45.7044 H   0  0  0  0  0  0  0  0  0  0  0  0
   44.0227   35.0930   45.7995 H   0  0  0  0  0  0  0  0  0  0  0  0
   44.7604   37.4606   44.9061 H   0  0  0  0  0  0  0  0  0  0  0  0
  1  2  2  0
  2 15  1  0
  3  1  1  0
  4  3  2  0
  5  4  1  0
  6  7  1  0
  6  5  2  0
  7  8  2  0
  8  3  1  0
 10  9  2  0
 11 10  1  0
 11  7  1  0
 12 11  1  0
 12 13  1  0
 14 10  1  0
 14 13  1  0
 16 21  1  0
 16 20  1  0
 17 18  1  0
 17 16  1  0
 18 15  1  0
 18 19  1  0
 19 20  1  0
  1 22  1  0
  2 23  1  0
  4 24  1  0
  5 25  1  0
 11 26  1  6
 12 27  1  0
 12 28  1  0
 13 29  1  0
 13 30  1  0
 14 31  1  0
 15 32  1  0
 15 33  1  0
 16 34  1  6
 17 35  1  0
 17 36  1  0
 18 37  1  6
 20 38  1  0
 20 39  1  0
 21 40  1  0
M  ISO  8  24  14  25  14  26  13  27  13  28  13  29  13  30  13  31  10
M  ISO  8  32   8  33   8  34  13  35  13  36  13  37  13  38  13  39  13
M  ISO  1  40   3
M  END
>  <minimizedAffinity>  (1) 
-5.38925314

>  <minimizedRMSD>  (1) 
1.92438233

$$$$
