
     RDKit          3D

 53 56  0  0  1  0  0  0  0  0999 V2000
   46.5200   33.1120   44.4890 C   0  0  0  0  0  0  0  0  0  0  0  0
   45.9790   32.2910   45.5120 N   0  0  0  0  0  0  0  0  0  0  0  0
   45.9450   32.8000   46.8150 C   0  0  0  0  0  0  0  0  0  0  0  0
   47.2270   32.4380   47.5940 C   0  0  0  0  0  0  0  0  0  0  0  0
   47.1880   30.9490   47.8010 C   0  0  0  0  0  0  0  0  0  0  0  0
   47.2030   30.3320   46.4140 C   0  0  0  0  0  0  0  0  0  0  0  0
   46.1880   30.9060   45.4660 C   0  0  2  0  0  0  0  0  0  0  0  0
   46.5770   30.4340   44.0730 C   0  0  0  0  0  0  0  0  0  0  0  0
   45.7040   35.3800   43.4540 C   0  0  1  0  0  0  0  0  0  0  0  0
   44.6490   34.8450   44.1960 C   0  0  0  0  0  0  0  0  0  0  0  0
   45.9880   34.4810   44.6930 C   0  0  1  0  0  0  0  0  0  0  0  0
   45.2960   34.1560   41.3130 C   0  0  0  0  0  0  0  0  0  0  0  0
   46.2180   34.8750   42.1420 C   0  0  0  0  0  0  0  0  0  0  0  0
   47.4930   35.0690   41.7220 C   0  0  0  0  0  0  0  0  0  0  0  0
   47.8510   34.5650   40.5120 N   0  0  0  0  0  0  0  0  0  0  0  0
   46.9740   33.8820   39.7280 C   0  0  0  0  0  0  0  0  0  0  0  0
   45.6700   33.6610   40.1110 N   0  0  0  0  0  0  0  0  0  0  0  0
   47.3660   33.3640   38.4690 N   0  0  0  0  0  0  0  0  0  0  0  0
   46.7900   32.1720   37.8770 C   0  0  0  0  0  0  0  0  0  0  0  0
   47.9430   31.2300   37.6050 C   0  0  0  0  0  0  0  0  0  0  0  0
   48.8090   31.8530   36.5400 C   0  0  0  0  0  0  0  0  0  0  0  0
   48.6290   33.3270   36.3800 C   0  0  0  0  0  0  0  0  0  0  0  0
   48.3980   34.0380   37.7040 C   0  0  0  0  0  0  0  0  0  0  0  0
   46.2155   32.7332   43.5022 H   0  0  0  0  0  0  0  0  0  0  0  0
   47.6192   33.1117   44.5307 H   0  0  0  0  0  0  0  0  0  0  0  0
   45.8511   33.8950   46.7692 H   0  0  0  0  0  0  0  0  0  0  0  0
   45.0850   32.3562   47.3379 H   0  0  0  0  0  0  0  0  0  0  0  0
   48.1179   32.7187   47.0130 H   0  0  0  0  0  0  0  0  0  0  0  0
   47.2771   32.9741   48.5532 H   0  0  0  0  0  0  0  0  0  0  0  0
   48.0668   30.6200   48.3750 H   0  0  0  0  0  0  0  0  0  0  0  0
   46.2954   30.6447   48.3672 H   0  0  0  0  0  0  0  0  0  0  0  0
   48.2026   30.4845   45.9809 H   0  0  0  0  0  0  0  0  0  0  0  0
   46.9470   29.2698   46.5411 H   0  0  0  0  0  0  0  0  0  0  0  0
   45.2030   30.5331   45.7834 H   0  0  0  0  0  0  0  0  0  0  0  0
   47.2747   29.5875   44.1542 H   0  0  0  0  0  0  0  0  0  0  0  0
   45.6757   30.1154   43.5288 H   0  0  0  0  0  0  0  0  0  0  0  0
   47.0619   31.2579   43.5288 H   0  0  0  0  0  0  0  0  0  0  0  0
   45.8854   36.4049   43.0981 H   0  0  0  0  0  0  0  0  0  0  0  0
   44.0223   35.5207   44.7965 H   0  0  0  0  0  0  0  0  0  0  0  0
   43.7721   34.2436   43.9141 H   0  0  0  0  0  0  0  0  0  0  0  0
   46.5359   34.5550   45.6439 H   0  0  0  0  0  0  0  0  0  0  0  0
   44.2637   34.0037   41.6612 H   0  0  0  0  0  0  0  0  0  0  0  0
   48.2161   35.6183   42.3428 H   0  0  0  0  0  0  0  0  0  0  0  0
   46.0760   31.7082   38.5735 H   0  0  0  0  0  0  0  0  0  0  0  0
   46.2431   32.4101   36.9528 H   0  0  0  0  0  0  0  0  0  0  0  0
   48.5292   31.0817   38.5239 H   0  0  0  0  0  0  0  0  0  0  0  0
   47.5677   30.2518   37.2699 H   0  0  0  0  0  0  0  0  0  0  0  0
   49.8612   31.6612   36.7969 H   0  0  0  0  0  0  0  0  0  0  0  0
   48.5093   31.3956   35.5856 H   0  0  0  0  0  0  0  0  0  0  0  0
   49.5327   33.7428   35.9105 H   0  0  0  0  0  0  0  0  0  0  0  0
   47.7363   33.4867   35.7574 H   0  0  0  0  0  0  0  0  0  0  0  0
   49.3339   34.0401   38.2819 H   0  0  0  0  0  0  0  0  0  0  0  0
   48.0748   35.0699   37.5022 H   0  0  0  0  0  0  0  0  0  0  0  0
  1 11  1  0
  1  2  1  0
  2  3  1  0
  3  4  1  0
  4  5  1  0
  6  5  1  0
  7  2  1  0
  7  6  1  0
  8  7  1  0
  9 10  1  0
  9 11  1  0
 10 11  1  0
 12 13  2  0
 13  9  1  0
 14 13  1  0
 15 14  2  0
 16 17  2  0
 16 15  1  0
 17 12  1  0
 18 16  1  0
 19 18  1  0
 20 19  1  0
 21 20  1  0
 22 21  1  0
 22 23  1  0
 23 18  1  0
  1 24  1  0
  1 25  1  0
  3 26  1  0
  3 27  1  0
  4 28  1  0
  4 29  1  0
  5 30  1  0
  5 31  1  0
  6 32  1  0
  6 33  1  0
  7 34  1  1
  8 35  1  0
  8 36  1  0
  8 37  1  0
  9 38  1  1
 10 39  1  0
 10 40  1  0
 11 41  1  1
 12 42  1  0
 14 43  1  0
 19 44  1  0
 19 45  1  0
 20 46  1  0
 20 47  1  0
 21 48  1  0
 21 49  1  0
 22 50  1  0
 22 51  1  0
 23 52  1  0
 23 53  1  0
M  ISO  8  24   8  25   8  26  13  27  13  28  13  29  13  30  13  31  13
M  ISO  8  32  13  33  13  34  13  35   8  36   8  37   8  38  13  39  13
M  ISO  8  40  13  41  13  42  14  43  14  44  13  45  13  46  13  47  13
M  ISO  6  48  13  49  13  50  13  51  13  52  13  53  13
M  END
>  <minimizedAffinity>  (1) 
-5.06737947

>  <minimizedRMSD>  (1) 
2.53990579

$$$$
