
     RDKit          3D

 28 29  0  0  0  0  0  0  0  0999 V2000
   43.6540   35.6030   41.5280 C   0  0  0  0  0  0  0  0  0  0  0  0
   44.2220   35.1450   42.8330 C   0  0  0  0  0  0  0  0  0  0  0  0
   44.8160   33.8790   42.8720 C   0  0  0  0  0  0  0  0  0  0  0  0
   45.3490   33.4520   44.1010 C   0  0  0  0  0  0  0  0  0  0  0  0
   45.2600   34.2750   45.1680 N   0  0  0  0  0  0  0  0  0  0  0  0
   44.6670   35.5060   45.0760 C   0  0  0  0  0  0  0  0  0  0  0  0
   44.1490   35.9330   43.9000 N   0  0  0  0  0  0  0  0  0  0  0  0
   42.4410   34.9470   41.1580 N   0  0  0  0  0  0  0  0  0  0  0  0
   41.2380   35.5200   41.5790 C   0  0  0  0  0  0  0  0  0  0  0  0
   40.2500   35.9380   40.5510 C   0  0  0  0  0  0  0  0  0  0  0  0
   40.4320   35.3020   39.2030 C   0  0  0  0  0  0  0  0  0  0  0  0
   41.9120   35.3180   38.8750 C   0  0  0  0  0  0  0  0  0  0  0  0
   42.5160   34.3460   39.8790 C   0  0  0  0  0  0  0  0  0  0  0  0
   43.4555   36.6827   41.5975 H   0  0  0  0  0  0  0  0  0  0  0  0
   44.3966   35.3565   40.7548 H   0  0  0  0  0  0  0  0  0  0  0  0
   44.8642   33.2425   41.9762 H   0  0  0  0  0  0  0  0  0  0  0  0
   45.8292   32.4665   44.1917 H   0  0  0  0  0  0  0  0  0  0  0  0
   44.6111   36.1527   45.9640 H   0  0  0  0  0  0  0  0  0  0  0  0
   40.7390   34.7855   42.2283 H   0  0  0  0  0  0  0  0  0  0  0  0
   41.5432   36.4630   42.0561 H   0  0  0  0  0  0  0  0  0  0  0  0
   39.2455   35.6799   40.9177 H   0  0  0  0  0  0  0  0  0  0  0  0
   40.3960   37.0184   40.4044 H   0  0  0  0  0  0  0  0  0  0  0  0
   40.0658   34.2650   39.2267 H   0  0  0  0  0  0  0  0  0  0  0  0
   39.8648   35.8545   38.4394 H   0  0  0  0  0  0  0  0  0  0  0  0
   42.0888   34.9771   37.8442 H   0  0  0  0  0  0  0  0  0  0  0  0
   42.3515   36.3243   38.9393 H   0  0  0  0  0  0  0  0  0  0  0  0
   41.9500   33.4028   39.8745 H   0  0  0  0  0  0  0  0  0  0  0  0
   43.5612   34.1230   39.6187 H   0  0  0  0  0  0  0  0  0  0  0  0
  1  2  1  0
  2  3  2  0
  2  7  1  0
  3  4  1  0
  4  5  2  0
  6  5  1  0
  7  6  2  0
  8  1  1  0
  8  9  1  0
 10  9  1  0
 11 10  1  0
 12 11  1  0
 12 13  1  0
 13  8  1  0
  1 14  1  0
  1 15  1  0
  3 16  1  0
  4 17  1  0
  6 18  1  0
  9 19  1  0
  9 20  1  0
 10 21  1  0
 10 22  1  0
 11 23  1  0
 11 24  1  0
 12 25  1  0
 12 26  1  0
 13 27  1  0
 13 28  1  0
M  ISO  8  14   8  15   8  16  14  17  14  18  14  19  13  20  13  21  13
M  ISO  7  22  13  23  13  24  13  25  13  26  13  27  13  28  13
M  END
>  <minimizedAffinity>  (1) 
-4.42929935

>  <minimizedRMSD>  (1) 
2.66129136

$$$$
