
     RDKit          3D

 41 43  0  0  1  0  0  0  0  0999 V2000
   47.2580   33.5210   44.1390 C   0  0  0  0  0  0  0  0  0  0  0  0
   44.6410   35.9970   43.7700 C   0  0  1  0  0  0  0  0  0  0  0  0
   45.8430   35.3150   43.0960 C   0  0  0  0  0  0  0  0  0  0  0  0
   45.8320   33.9960   43.7960 C   0  0  2  0  0  0  0  0  0  0  0  0
   45.0550   34.0860   44.9170 O   0  0  0  0  0  0  0  0  0  0  0  0
   44.7330   35.3960   45.1550 C   0  0  0  0  0  0  0  0  0  0  0  0
   44.8290   37.3780   43.7660 O   0  0  0  0  0  0  0  0  0  0  0  0
   49.1620   33.2990   42.6030 C   0  0  0  0  0  0  0  0  0  0  0  0
   47.9280   32.9590   42.9560 C   0  0  0  0  0  0  0  0  0  0  0  0
   49.7450   32.6910   41.4150 C   0  0  0  0  0  0  0  0  0  0  0  0
   51.0450   32.1720   41.5210 C   0  0  0  0  0  0  0  0  0  0  0  0
   51.6330   31.5780   40.3810 C   0  0  0  0  0  0  0  0  0  0  0  0
   50.8930   31.5410   39.2270 N   0  0  0  0  0  0  0  0  0  0  0  0
   49.6550   32.0530   39.1860 C   0  0  0  0  0  0  0  0  0  0  0  0
   49.1120   32.6080   40.2570 N   0  0  0  0  0  0  0  0  0  0  0  0
   48.9140   31.9980   37.9710 N   0  0  0  0  0  0  0  0  0  0  0  0
   49.3720   31.7210   36.6220 C   0  0  0  0  0  0  0  0  0  0  0  0
   48.5770   32.7490   35.8040 C   0  0  0  0  0  0  0  0  0  0  0  0
   47.5030   33.2760   36.7300 C   0  0  0  0  0  0  0  0  0  0  0  0
   47.4870   32.2150   37.8120 C   0  0  0  0  0  0  0  0  0  0  0  0
   47.8419   34.3761   44.5102 H   0  0  0  0  0  0  0  0  0  0  0  0
   47.1897   32.7367   44.9073 H   0  0  0  0  0  0  0  0  0  0  0  0
   43.6607   35.8466   43.2942 H   0  0  0  0  0  0  0  0  0  0  0  0
   45.6910   35.2015   42.0125 H   0  0  0  0  0  0  0  0  0  0  0  0
   46.7898   35.8694   43.1755 H   0  0  0  0  0  0  0  0  0  0  0  0
   45.4035   33.2412   43.1203 H   0  0  0  0  0  0  0  0  0  0  0  0
   45.5165   35.8917   45.7470 H   0  0  0  0  0  0  0  0  0  0  0  0
   43.8039   35.5096   45.7328 H   0  0  0  0  0  0  0  0  0  0  0  0
   44.8739   37.7076   44.6984 H   0  0  0  0  0  0  0  0  0  0  0  0
   49.7338   34.0269   43.1973 H   0  0  0  0  0  0  0  0  0  0  0  0
   47.3849   32.2278   42.3392 H   0  0  0  0  0  0  0  0  0  0  0  0
   51.5950   32.2265   42.4720 H   0  0  0  0  0  0  0  0  0  0  0  0
   52.6497   31.1596   40.4183 H   0  0  0  0  0  0  0  0  0  0  0  0
   50.4556   31.8837   36.5254 H   0  0  0  0  0  0  0  0  0  0  0  0
   49.2153   30.6800   36.3029 H   0  0  0  0  0  0  0  0  0  0  0  0
   49.2344   33.5676   35.4758 H   0  0  0  0  0  0  0  0  0  0  0  0
   48.1438   32.2970   34.8996 H   0  0  0  0  0  0  0  0  0  0  0  0
   47.7726   34.2614   37.1379 H   0  0  0  0  0  0  0  0  0  0  0  0
   46.5294   33.4334   36.2428 H   0  0  0  0  0  0  0  0  0  0  0  0
   47.0241   32.5839   38.7391 H   0  0  0  0  0  0  0  0  0  0  0  0
   46.9048   31.3138   37.5695 H   0  0  0  0  0  0  0  0  0  0  0  0
  2  6  1  0
  3  2  1  0
  3  4  1  0
  4  1  1  0
  4  5  1  0
  5  6  1  0
  7  2  1  0
  8  9  2  0
  9  1  1  0
 10 11  2  0
 10  8  1  0
 12 11  1  0
 13 12  2  0
 14 13  1  0
 14 15  2  0
 15 10  1  0
 16 14  1  0
 17 16  1  0
 18 17  1  0
 18 19  1  0
 19 20  1  0
 20 16  1  0
  1 21  1  0
  1 22  1  0
  2 23  1  6
  3 24  1  0
  3 25  1  0
  4 26  1  6
  6 27  1  0
  6 28  1  0
  7 29  1  0
  8 30  1  0
  9 31  1  0
 11 32  1  0
 12 33  1  0
 17 34  1  0
 17 35  1  0
 18 36  1  0
 18 37  1  0
 19 38  1  0
 19 39  1  0
 20 40  1  0
 20 41  1  0
M  ISO  8  21   8  22   8  23  13  24  13  25  13  26  13  27  13  28  13
M  ISO  8  29   3  32  14  33  14  34  13  35  13  36  13  37  13  38  13
M  ISO  3  39  13  40  13  41  13
M  END
>  <minimizedAffinity>  (1) 
-5.13875866

>  <minimizedRMSD>  (1) 
0.618143201

$$$$
