
     RDKit          3D

 27 29  0  0  1  0  0  0  0  0999 V2000
   47.4300   34.5910   41.4140 C   0  0  1  0  0  0  0  0  0  0  0  0
   48.6360   35.3620   40.8910 C   0  0  0  0  0  0  0  0  0  0  0  0
   48.2900   34.0080   40.3400 C   0  0  2  0  0  0  0  0  0  0  0  0
   47.8670   33.9880   38.9270 C   0  0  0  0  0  0  0  0  0  0  0  0
   46.8280   33.2320   38.4240 C   0  0  0  0  0  0  0  0  0  0  0  0
   46.7250   33.4680   37.0680 C   0  0  0  0  0  0  0  0  0  0  0  0
   47.7030   34.3640   36.7720 N   0  0  0  0  0  0  0  0  0  0  0  0
   48.3880   34.6760   37.8830 N   0  0  0  0  0  0  0  0  0  0  0  0
   47.5660   33.9920   42.7700 C   0  0  0  0  0  0  0  0  0  0  0  0
   46.4940   34.4140   43.6960 C   0  0  0  0  0  0  0  0  0  0  0  0
   45.7470   35.4890   43.2620 C   0  0  0  0  0  0  0  0  0  0  0  0
   44.7130   36.0090   44.0360 C   0  0  0  0  0  0  0  0  0  0  0  0
   44.5050   35.3830   45.2310 N   0  0  0  0  0  0  0  0  0  0  0  0
   45.2480   34.3230   45.6460 C   0  0  0  0  0  0  0  0  0  0  0  0
   46.2350   33.8410   44.8870 N   0  0  0  0  0  0  0  0  0  0  0  0
   46.3562   34.8020   41.5252 H   0  0  0  0  0  0  0  0  0  0  0  0
   48.4915   36.2621   40.2755 H   0  0  0  0  0  0  0  0  0  0  0  0
   49.5292   35.8182   41.3427 H   0  0  0  0  0  0  0  0  0  0  0  0
   48.7757   33.0259   40.2419 H   0  0  0  0  0  0  0  0  0  0  0  0
   46.1879   32.5536   39.0071 H   0  0  0  0  0  0  0  0  0  0  0  0
   46.0004   33.0225   36.3705 H   0  0  0  0  0  0  0  0  0  0  0  0
   47.8906   34.7467   35.8343 H   0  0  0  0  0  0  0  0  0  0  0  0
   47.5359   32.8966   42.6743 H   0  0  0  0  0  0  0  0  0  0  0  0
   48.5210   34.3405   43.1902 H   0  0  0  0  0  0  0  0  0  0  0  0
   45.9723   35.9441   42.2862 H   0  0  0  0  0  0  0  0  0  0  0  0
   44.1057   36.8652   43.7072 H   0  0  0  0  0  0  0  0  0  0  0  0
   45.0335   33.8567   46.6189 H   0  0  0  0  0  0  0  0  0  0  0  0
  1  9  1  0
  2  1  1  0
  3  2  1  0
  3  1  1  0
  4  3  1  0
  5  4  1  0
  6  5  2  0
  7  6  1  0
  7  8  1  0
  8  4  2  0
  9 10  1  0
 10 15  1  0
 11 10  2  0
 11 12  1  0
 12 13  2  0
 13 14  1  0
 15 14  2  0
  1 16  1  6
  2 17  1  0
  2 18  1  0
  3 19  1  1
  5 20  1  0
  6 21  1  0
  7 22  1  0
  9 23  1  0
  9 24  1  0
 11 25  1  0
 12 26  1  0
 14 27  1  0
M  ISO  8  16  13  17  13  18  13  19  13  20  14  21  14  22   9  23   8
M  ISO  4  24   8  25  14  26  14  27  14
M  END
>  <minimizedAffinity>  (1) 
-5.14364433

>  <minimizedRMSD>  (1) 
1.4101305

$$$$
