
     RDKit          3D

 27 29  0  0  1  0  0  0  0  0999 V2000
   47.3640   34.4990   41.4330 C   0  0  1  0  0  0  0  0  0  0  0  0
   48.5870   35.2830   40.9720 C   0  0  0  0  0  0  0  0  0  0  0  0
   48.2690   33.9390   40.3850 C   0  0  2  0  0  0  0  0  0  0  0  0
   47.8980   33.9950   38.9560 C   0  0  0  0  0  0  0  0  0  0  0  0
   46.7760   33.4450   38.3780 C   0  0  0  0  0  0  0  0  0  0  0  0
   46.8470   33.7430   37.0490 N   0  0  0  0  0  0  0  0  0  0  0  0
   47.9730   34.4550   36.8030 C   0  0  0  0  0  0  0  0  0  0  0  0
   48.6040   34.5990   37.9850 N   0  0  0  0  0  0  0  0  0  0  0  0
   47.4890   33.9420   42.8070 C   0  0  0  0  0  0  0  0  0  0  0  0
   46.4440   34.4230   43.7220 C   0  0  0  0  0  0  0  0  0  0  0  0
   45.7070   35.5040   43.2850 C   0  0  0  0  0  0  0  0  0  0  0  0
   44.6730   36.0160   44.1090 C   0  0  0  0  0  0  0  0  0  0  0  0
   44.4810   35.3880   45.3050 N   0  0  0  0  0  0  0  0  0  0  0  0
   45.2420   34.3250   45.6820 C   0  0  0  0  0  0  0  0  0  0  0  0
   46.2170   33.8420   44.9020 N   0  0  0  0  0  0  0  0  0  0  0  0
   46.2789   34.6698   41.4916 H   0  0  0  0  0  0  0  0  0  0  0  0
   48.4636   36.1932   40.3667 H   0  0  0  0  0  0  0  0  0  0  0  0
   49.4596   35.7343   41.4669 H   0  0  0  0  0  0  0  0  0  0  0  0
   48.7536   32.9560   40.2907 H   0  0  0  0  0  0  0  0  0  0  0  0
   45.9816   32.8788   38.8862 H   0  0  0  0  0  0  0  0  0  0  0  0
   46.1511   33.4687   36.3409 H   0  0  0  0  0  0  0  0  0  0  0  0
   48.3071   34.8404   35.8284 H   0  0  0  0  0  0  0  0  0  0  0  0
   47.4244   32.8455   42.7474 H   0  0  0  0  0  0  0  0  0  0  0  0
   48.4565   34.2766   43.2095 H   0  0  0  0  0  0  0  0  0  0  0  0
   45.9191   35.9636   42.3084 H   0  0  0  0  0  0  0  0  0  0  0  0
   44.0580   36.8742   43.8004 H   0  0  0  0  0  0  0  0  0  0  0  0
   45.0508   33.8490   46.6551 H   0  0  0  0  0  0  0  0  0  0  0  0
  1  9  1  0
  2  1  1  0
  3  2  1  0
  3  1  1  0
  4  3  1  0
  5  4  2  0
  6  5  1  0
  7  6  1  0
  7  8  2  0
  8  4  1  0
  9 10  1  0
 10 15  1  0
 11 10  2  0
 11 12  1  0
 12 13  2  0
 13 14  1  0
 15 14  2  0
  1 16  1  6
  2 17  1  0
  2 18  1  0
  3 19  1  1
  5 20  1  0
  6 21  1  0
  7 22  1  0
  9 23  1  0
  9 24  1  0
 11 25  1  0
 12 26  1  0
 14 27  1  0
M  ISO  8  16  13  17  13  18  13  19  13  20  14  21   9  22  14  23   8
M  ISO  4  24   8  25  14  26  14  27  14
M  END
>  <minimizedAffinity>  (1) 
-4.78535223

>  <minimizedRMSD>  (1) 
1.2373395

$$$$
