
     RDKit          3D

 30 32  0  0  1  0  0  0  0  0999 V2000
   48.2230   33.8500   42.1290 C   0  0  1  0  0  0  0  0  0  0  0  0
   49.6660   33.4680   41.9370 C   0  0  0  0  0  0  0  0  0  0  0  0
   48.5880   32.7940   41.1400 C   0  0  2  0  0  0  0  0  0  0  0  0
   48.6790   33.0440   39.7010 C   0  0  0  0  0  0  0  0  0  0  0  0
   49.2570   32.1550   38.8120 C   0  0  0  0  0  0  0  0  0  0  0  0
   49.3520   32.3730   37.4600 C   0  0  0  0  0  0  0  0  0  0  0  0
   48.8510   33.5370   36.9200 C   0  0  0  0  0  0  0  0  0  0  0  0
   48.2630   34.4610   37.7600 C   0  0  0  0  0  0  0  0  0  0  0  0
   48.1920   34.1960   39.1160 C   0  0  0  0  0  0  0  0  0  0  0  0
   47.6030   33.3830   43.3970 C   0  0  0  0  0  0  0  0  0  0  0  0
   46.4910   34.2380   43.8480 C   0  0  0  0  0  0  0  0  0  0  0  0
   46.0870   35.2020   42.9490 C   0  0  0  0  0  0  0  0  0  0  0  0
   45.0040   36.0460   43.3140 C   0  0  0  0  0  0  0  0  0  0  0  0
   44.4350   35.8430   44.5370 N   0  0  0  0  0  0  0  0  0  0  0  0
   44.8860   34.8730   45.3760 C   0  0  0  0  0  0  0  0  0  0  0  0
   45.9060   34.0750   45.0330 N   0  0  0  0  0  0  0  0  0  0  0  0
   47.6463   34.7856   42.0832 H   0  0  0  0  0  0  0  0  0  0  0  0
   50.3603   34.1656   41.4458 H   0  0  0  0  0  0  0  0  0  0  0  0
   50.4777   33.1274   42.5967 H   0  0  0  0  0  0  0  0  0  0  0  0
   48.1806   31.7848   40.9799 H   0  0  0  0  0  0  0  0  0  0  0  0
   49.6655   31.2158   39.2134 H   0  0  0  0  0  0  0  0  0  0  0  0
   49.8259   31.6218   36.8110 H   0  0  0  0  0  0  0  0  0  0  0  0
   48.9183   33.7268   35.8386 H   0  0  0  0  0  0  0  0  0  0  0  0
   47.8549   35.3989   37.3553 H   0  0  0  0  0  0  0  0  0  0  0  0
   47.7199   34.9471   39.7663 H   0  0  0  0  0  0  0  0  0  0  0  0
   47.2203   32.3631   43.2443 H   0  0  0  0  0  0  0  0  0  0  0  0
   48.3804   33.4202   44.1744 H   0  0  0  0  0  0  0  0  0  0  0  0
   46.5889   35.3145   41.9767 H   0  0  0  0  0  0  0  0  0  0  0  0
   44.6387   36.8323   42.6370 H   0  0  0  0  0  0  0  0  0  0  0  0
   44.4039   34.7407   46.3558 H   0  0  0  0  0  0  0  0  0  0  0  0
  1 10  1  0
  2  1  1  0
  3  2  1  0
  3  1  1  0
  4  3  1  0
  5  4  2  0
  6  5  1  0
  7  6  2  0
  7  8  1  0
  8  9  2  0
  9  4  1  0
 10 11  1  0
 11 16  2  0
 12 13  2  0
 12 11  1  0
 13 14  1  0
 14 15  2  0
 16 15  1  0
  1 17  1  6
  2 18  1  0
  2 19  1  0
  3 20  1  6
  5 21  1  0
  6 22  1  0
  7 23  1  0
  8 24  1  0
  9 25  1  0
 10 26  1  0
 10 27  1  0
 12 28  1  0
 13 29  1  0
 15 30  1  0
M  ISO  8  17  13  18  13  19  13  20  13  21  14  22  14  23  14  24  14
M  ISO  6  25  14  26   8  27   8  28  14  29  14  30  14
M  END
>  <minimizedAffinity>  (1) 
-4.67445755

>  <minimizedRMSD>  (1) 
2.24850917

$$$$
