
     RDKit          3D

 28 30  0  0  1  0  0  0  0  0999 V2000
   47.5330   34.1450   41.6070 C   0  0  1  0  0  0  0  0  0  0  0  0
   48.6540   35.0360   41.1080 C   0  0  0  0  0  0  0  0  0  0  0  0
   48.5600   33.5960   40.6740 C   0  0  2  0  0  0  0  0  0  0  0  0
   48.2690   33.4120   39.2390 C   0  0  0  0  0  0  0  0  0  0  0  0
   47.9270   32.1860   38.7010 C   0  0  0  0  0  0  0  0  0  0  0  0
   47.6640   32.0740   37.3460 C   0  0  0  0  0  0  0  0  0  0  0  0
   47.7420   33.1500   36.5800 N   0  0  0  0  0  0  0  0  0  0  0  0
   48.0740   34.3490   37.0850 C   0  0  0  0  0  0  0  0  0  0  0  0
   48.3410   34.4980   38.4160 N   0  0  0  0  0  0  0  0  0  0  0  0
   47.6060   33.7530   43.0440 C   0  0  0  0  0  0  0  0  0  0  0  0
   46.4920   34.3130   43.8410 C   0  0  0  0  0  0  0  0  0  0  0  0
   45.8460   35.3640   43.2260 C   0  0  0  0  0  0  0  0  0  0  0  0
   44.7700   36.0210   43.8610 C   0  0  0  0  0  0  0  0  0  0  0  0
   44.4390   35.5360   45.0940 N   0  0  0  0  0  0  0  0  0  0  0  0
   45.0930   34.4970   45.6750 C   0  0  0  0  0  0  0  0  0  0  0  0
   46.1080   33.8860   45.0640 N   0  0  0  0  0  0  0  0  0  0  0  0
   46.4335   34.1772   41.6001 H   0  0  0  0  0  0  0  0  0  0  0  0
   48.4407   35.8436   40.3923 H   0  0  0  0  0  0  0  0  0  0  0  0
   49.4251   35.6625   41.5801 H   0  0  0  0  0  0  0  0  0  0  0  0
   49.1821   32.6899   40.7187 H   0  0  0  0  0  0  0  0  0  0  0  0
   47.8637   31.2993   39.3489 H   0  0  0  0  0  0  0  0  0  0  0  0
   47.3931   31.1006   36.9111 H   0  0  0  0  0  0  0  0  0  0  0  0
   48.1316   35.2221   36.4184 H   0  0  0  0  0  0  0  0  0  0  0  0
   47.5721   32.6557   43.1126 H   0  0  0  0  0  0  0  0  0  0  0  0
   48.5448   34.1548   43.4530 H   0  0  0  0  0  0  0  0  0  0  0  0
   46.1727   35.6945   42.2290 H   0  0  0  0  0  0  0  0  0  0  0  0
   44.2365   36.8631   43.3961 H   0  0  0  0  0  0  0  0  0  0  0  0
   44.7783   34.1524   46.6711 H   0  0  0  0  0  0  0  0  0  0  0  0
  1 10  1  0
  2  1  1  0
  3  2  1  0
  3  1  1  0
  4  3  1  0
  5  4  2  0
  6  5  1  0
  7  8  1  0
  7  6  2  0
  8  9  2  0
  9  4  1  0
 10 11  1  0
 11 16  1  0
 12 11  2  0
 12 13  1  0
 13 14  2  0
 14 15  1  0
 16 15  2  0
  1 17  1  6
  2 18  1  0
  2 19  1  0
  3 20  1  1
  5 21  1  0
  6 22  1  0
  8 23  1  0
 10 24  1  0
 10 25  1  0
 12 26  1  0
 13 27  1  0
 15 28  1  0
M  ISO  8  17  13  18  13  19  13  20  13  21  14  22  14  23  14  24   8
M  ISO  4  25   8  26  14  27  14  28  14
M  END
>  <minimizedAffinity>  (1) 
-4.54119968

>  <minimizedRMSD>  (1) 
2.17346191

$$$$
