
     RDKit          3D

 24 25  0  0  1  0  0  0  0  0999 V2000
   47.3710   34.0360   42.5870 C   0  0  0  0  0  0  0  0  0  0  0  0
   46.4220   34.3630   43.6660 C   0  0  0  0  0  0  0  0  0  0  0  0
   45.6000   35.4420   43.4110 C   0  0  0  0  0  0  0  0  0  0  0  0
   44.6610   35.8610   44.3540 C   0  0  0  0  0  0  0  0  0  0  0  0
   44.6170   35.1420   45.5120 N   0  0  0  0  0  0  0  0  0  0  0  0
   45.4300   34.0800   45.7510 C   0  0  0  0  0  0  0  0  0  0  0  0
   46.3220   33.7020   44.8300 N   0  0  0  0  0  0  0  0  0  0  0  0
   47.5450   35.1460   41.6080 C   0  0  1  0  0  0  0  0  0  0  0  0
   48.9480   35.7230   41.4900 C   0  0  0  0  0  0  0  0  0  0  0  0
   48.3820   34.8370   40.4120 C   0  0  1  0  0  0  0  0  0  0  0  0
   48.6840   32.6480   39.2940 C   0  0  0  0  0  0  0  0  0  0  0  0
   47.8700   32.9770   38.3940 O   0  0  0  0  0  0  0  0  0  0  0  0
   49.0170   33.5340   40.3780 N   0  0  0  0  0  0  0  0  0  0  0  0
   48.3488   33.8091   43.0370 H   0  0  0  0  0  0  0  0  0  0  0  0
   46.9615   33.1749   42.0386 H   0  0  0  0  0  0  0  0  0  0  0  0
   45.6861   35.9774   42.4539 H   0  0  0  0  0  0  0  0  0  0  0  0
   43.9966   36.7191   44.1744 H   0  0  0  0  0  0  0  0  0  0  0  0
   45.3542   33.5317   46.7016 H   0  0  0  0  0  0  0  0  0  0  0  0
   46.5417   35.5666   41.7711 H   0  0  0  0  0  0  0  0  0  0  0  0
   49.0896   36.7979   41.3041 H   0  0  0  0  0  0  0  0  0  0  0  0
   49.8531   35.7156   42.1150 H   0  0  0  0  0  0  0  0  0  0  0  0
   48.1988   34.9118   39.3299 H   0  0  0  0  0  0  0  0  0  0  0  0
   49.1549   31.6548   39.2516 H   0  0  0  0  0  0  0  0  0  0  0  0
   49.6864   33.2510   41.1079 H   0  0  0  0  0  0  0  0  0  0  0  0
  1  2  1  0
  2  7  1  0
  3  2  2  0
  3  4  1  0
  4  5  2  0
  5  6  1  0
  7  6  2  0
  8  1  1  0
  9  8  1  0
 10  9  1  0
 10  8  1  0
 11 13  1  0
 12 11  2  0
 13 10  1  0
  1 14  1  0
  1 15  1  0
  3 16  1  0
  4 17  1  0
  6 18  1  0
  8 19  1  6
  9 20  1  0
  9 21  1  0
 10 22  1  6
 11 23  1  0
 13 24  1  0
M  ISO  8  14   8  15   8  16  14  17  14  18  14  19  13  20  13  21  13
M  ISO  2  22  13  23   6
M  END
>  <minimizedAffinity>  (1) 
-4.43582916

>  <minimizedRMSD>  (1) 
0.503580034

$$$$
