
     RDKit          3D

 22 23  0  0  1  0  0  0  0  0999 V2000
   47.3800   34.0250   42.5640 C   0  0  0  0  0  0  0  0  0  0  0  0
   46.4090   34.4040   43.6140 C   0  0  0  0  0  0  0  0  0  0  0  0
   45.6410   35.5080   43.3120 C   0  0  0  0  0  0  0  0  0  0  0  0
   44.6920   35.9820   44.2210 C   0  0  0  0  0  0  0  0  0  0  0  0
   44.5880   35.2860   45.3940 N   0  0  0  0  0  0  0  0  0  0  0  0
   45.3530   34.1980   45.6760 C   0  0  0  0  0  0  0  0  0  0  0  0
   46.2520   33.7680   44.7890 N   0  0  0  0  0  0  0  0  0  0  0  0
   47.5500   35.1070   41.5460 C   0  0  1  0  0  0  0  0  0  0  0  0
   48.9440   35.7030   41.4670 C   0  0  0  0  0  0  0  0  0  0  0  0
   48.4040   34.8420   40.3520 C   0  0  1  0  0  0  0  0  0  0  0  0
   48.9220   33.5000   40.1680 N   0  0  0  0  0  0  0  0  0  0  0  0
   48.3533   33.8239   43.0354 H   0  0  0  0  0  0  0  0  0  0  0  0
   46.9961   33.1310   42.0509 H   0  0  0  0  0  0  0  0  0  0  0  0
   45.7764   36.0198   42.3478 H   0  0  0  0  0  0  0  0  0  0  0  0
   44.0666   36.8612   44.0066 H   0  0  0  0  0  0  0  0  0  0  0  0
   45.2308   33.6727   46.6347 H   0  0  0  0  0  0  0  0  0  0  0  0
   46.5251   35.4856   41.6738 H   0  0  0  0  0  0  0  0  0  0  0  0
   49.0748   36.7847   41.3161 H   0  0  0  0  0  0  0  0  0  0  0  0
   49.8399   35.6874   42.1051 H   0  0  0  0  0  0  0  0  0  0  0  0
   48.2944   34.9781   39.2660 H   0  0  0  0  0  0  0  0  0  0  0  0
   49.0890   33.0673   41.0877 H   0  0  0  0  0  0  0  0  0  0  0  0
   48.2379   32.9369   39.6428 H   0  0  0  0  0  0  0  0  0  0  0  0
  1  2  1  0
  2  7  1  0
  3  2  2  0
  3  4  1  0
  4  5  2  0
  5  6  1  0
  7  6  2  0
  8  1  1  0
  9  8  1  0
 10  9  1  0
 10  8  1  0
 11 10  1  0
  1 12  1  0
  1 13  1  0
  3 14  1  0
  4 15  1  0
  6 16  1  0
  8 17  1  6
  9 18  1  0
  9 19  1  0
 10 20  1  6
 11 21  1  0
 11 22  1  0
M  ISO  8  12   8  13   8  14  14  15  14  16  14  17  13  18  13  19  13
M  ISO  3  20  13  21   5  22   5
M  END
>  <minimizedAffinity>  (1) 
-4.32992935

>  <minimizedRMSD>  (1) 
0.111599475

$$$$
