
     RDKit          3D

 21 22  0  0  1  0  0  0  0  0999 V2000
   47.3630   34.0680   42.5230 C   0  0  0  0  0  0  0  0  0  0  0  0
   46.4060   34.4410   43.5810 C   0  0  0  0  0  0  0  0  0  0  0  0
   45.6330   35.5450   43.2970 C   0  0  0  0  0  0  0  0  0  0  0  0
   44.6850   35.9940   44.2220 C   0  0  0  0  0  0  0  0  0  0  0  0
   44.5830   35.2860   45.3870 N   0  0  0  0  0  0  0  0  0  0  0  0
   45.3580   34.1970   45.6460 C   0  0  0  0  0  0  0  0  0  0  0  0
   46.2560   33.7850   44.7490 N   0  0  0  0  0  0  0  0  0  0  0  0
   47.5750   35.1660   41.5340 C   0  0  1  0  0  0  0  0  0  0  0  0
   48.9670   35.7670   41.5110 C   0  0  0  0  0  0  0  0  0  0  0  0
   48.4800   34.8990   40.3800 C   0  0  1  0  0  0  0  0  0  0  0  0
   48.9520   33.5810   40.3050 O   0  0  0  0  0  0  0  0  0  0  0  0
   48.3280   33.8224   42.9903 H   0  0  0  0  0  0  0  0  0  0  0  0
   46.9457   33.2058   41.9823 H   0  0  0  0  0  0  0  0  0  0  0  0
   45.7615   36.0743   42.3413 H   0  0  0  0  0  0  0  0  0  0  0  0
   44.0535   36.8722   44.0223 H   0  0  0  0  0  0  0  0  0  0  0  0
   45.2437   33.6556   46.5967 H   0  0  0  0  0  0  0  0  0  0  0  0
   46.5487   35.5506   41.6281 H   0  0  0  0  0  0  0  0  0  0  0  0
   49.0994   36.8485   41.3599 H   0  0  0  0  0  0  0  0  0  0  0  0
   49.8348   35.7587   42.1869 H   0  0  0  0  0  0  0  0  0  0  0  0
   48.4409   35.0360   39.2893 H   0  0  0  0  0  0  0  0  0  0  0  0
   49.0799   33.2238   41.2194 H   0  0  0  0  0  0  0  0  0  0  0  0
  1  2  1  0
  2  7  1  0
  3  2  2  0
  3  4  1  0
  4  5  2  0
  5  6  1  0
  7  6  2  0
  8  1  1  0
  9  8  1  0
 10  9  1  0
 10  8  1  0
 11 10  1  0
  1 12  1  0
  1 13  1  0
  3 14  1  0
  4 15  1  0
  6 16  1  0
  8 17  1  6
  9 18  1  0
  9 19  1  0
 10 20  1  6
 11 21  1  0
M  ISO  8  12   8  13   8  14  14  15  14  16  14  17  13  18  13  19  13
M  ISO  2  20  13  21   3
M  END
>  <minimizedAffinity>  (1) 
-4.29793596

>  <minimizedRMSD>  (1) 
0.0993813649

$$$$
