
     RDKit          3D

 39 41  0  0  1  0  0  0  0  0999 V2000
   48.6480   32.1400   42.8060 C   0  0  0  0  0  0  0  0  0  0  0  0
   48.0720   33.3120   42.9860 C   0  0  0  0  0  0  0  0  0  0  0  0
   49.5390   31.9590   41.6580 C   0  0  0  0  0  0  0  0  0  0  0  0
   50.8710   31.6080   41.9480 C   0  0  0  0  0  0  0  0  0  0  0  0
   51.7590   31.4240   40.8850 C   0  0  0  0  0  0  0  0  0  0  0  0
   51.2830   31.5940   39.6340 N   0  0  0  0  0  0  0  0  0  0  0  0
   49.9910   31.9320   39.3890 C   0  0  0  0  0  0  0  0  0  0  0  0
   49.1410   32.1090   40.3920 N   0  0  0  0  0  0  0  0  0  0  0  0
   49.5470   32.0980   38.0100 C   0  0  0  0  0  0  0  0  0  0  0  0
   48.7560   33.1910   37.6580 C   0  0  0  0  0  0  0  0  0  0  0  0
   48.3240   33.3740   36.3720 C   0  0  0  0  0  0  0  0  0  0  0  0
   48.6430   32.5020   35.3700 C   0  0  0  0  0  0  0  0  0  0  0  0
   49.4220   31.4180   35.6950 C   0  0  0  0  0  0  0  0  0  0  0  0
   49.8690   31.2180   36.9990 C   0  0  0  0  0  0  0  0  0  0  0  0
   47.1610   33.5590   44.1280 C   0  0  0  0  0  0  0  0  0  0  0  0
   44.7640   36.1730   43.4400 C   0  0  1  0  0  0  0  0  0  0  0  0
   45.9580   35.3890   42.8820 C   0  0  0  0  0  0  0  0  0  0  0  0
   45.8280   34.1250   43.6430 C   0  0  2  0  0  0  0  0  0  0  0  0
   44.9430   34.2940   44.6770 O   0  0  0  0  0  0  0  0  0  0  0  0
   44.7040   35.6350   44.8370 C   0  0  0  0  0  0  0  0  0  0  0  0
   45.0370   37.5360   43.3800 O   0  0  0  0  0  0  0  0  0  0  0  0
   48.4625   31.3121   43.5062 H   0  0  0  0  0  0  0  0  0  0  0  0
   48.2722   34.1248   42.2723 H   0  0  0  0  0  0  0  0  0  0  0  0
   51.2053   31.4814   42.9883 H   0  0  0  0  0  0  0  0  0  0  0  0
   52.8096   31.1501   41.0619 H   0  0  0  0  0  0  0  0  0  0  0  0
   48.4731   33.9217   38.4301 H   0  0  0  0  0  0  0  0  0  0  0  0
   47.7010   34.2499   36.1383 H   0  0  0  0  0  0  0  0  0  0  0  0
   48.2892   32.6619   34.3408 H   0  0  0  0  0  0  0  0  0  0  0  0
   49.6974   30.6959   34.9122 H   0  0  0  0  0  0  0  0  0  0  0  0
   50.4915   30.3401   37.2266 H   0  0  0  0  0  0  0  0  0  0  0  0
   46.9800   32.6116   44.6569 H   0  0  0  0  0  0  0  0  0  0  0  0
   47.6305   34.2895   44.8032 H   0  0  0  0  0  0  0  0  0  0  0  0
   43.8100   36.0615   42.9038 H   0  0  0  0  0  0  0  0  0  0  0  0
   45.8644   35.2226   41.7987 H   0  0  0  0  0  0  0  0  0  0  0  0
   46.9296   35.8929   42.9914 H   0  0  0  0  0  0  0  0  0  0  0  0
   45.4347   33.3691   42.9474 H   0  0  0  0  0  0  0  0  0  0  0  0
   45.4752   36.0986   45.4698 H   0  0  0  0  0  0  0  0  0  0  0  0
   43.7445   35.8418   45.3337 H   0  0  0  0  0  0  0  0  0  0  0  0
   45.1097   37.8987   44.2983 H   0  0  0  0  0  0  0  0  0  0  0  0
  1  2  2  0
  2 15  1  0
  3  4  2  0
  3  1  1  0
  5  4  1  0
  6  5  2  0
  7  6  1  0
  7  8  2  0
  8  3  1  0
  9  7  1  0
 10  9  2  0
 11 10  1  0
 12 13  1  0
 12 11  2  0
 13 14  2  0
 14  9  1  0
 16 20  1  0
 17 16  1  0
 17 18  1  0
 18 15  1  0
 18 19  1  0
 19 20  1  0
 21 16  1  0
  1 22  1  0
  2 23  1  0
  4 24  1  0
  5 25  1  0
 10 26  1  0
 11 27  1  0
 12 28  1  0
 13 29  1  0
 14 30  1  0
 15 31  1  0
 15 32  1  0
 16 33  1  6
 17 34  1  0
 17 35  1  0
 18 36  1  6
 20 37  1  0
 20 38  1  0
 21 39  1  0
M  ISO  8  24  14  25  14  26  14  27  14  28  14  29  14  30  14  31   8
M  ISO  8  32   8  33  13  34  13  35  13  36  13  37  13  38  13  39   3
M  END
>  <minimizedAffinity>  (1) 
-4.91658449

>  <minimizedRMSD>  (1) 
0.560731471

$$$$
