
     RDKit          3D

 39 42  0  0  1  0  0  0  0  0999 V2000
   47.5410   35.0450   41.7270 C   0  0  1  0  0  0  0  0  0  0  0  0
   49.0300   34.8030   41.5190 C   0  0  0  0  0  0  0  0  0  0  0  0
   48.0640   34.7400   40.3560 C   0  0  1  0  0  0  0  0  0  0  0  0
   46.7850   33.9570   42.3750 C   0  0  0  0  0  0  0  0  0  0  0  0
   46.0400   34.3520   43.5760 C   0  0  0  0  0  0  0  0  0  0  0  0
   45.3200   35.5070   43.4260 C   0  0  0  0  0  0  0  0  0  0  0  0
   44.5610   36.0200   44.4860 C   0  0  0  0  0  0  0  0  0  0  0  0
   44.6010   35.2870   45.6520 N   0  0  0  0  0  0  0  0  0  0  0  0
   45.3150   34.1510   45.7810 C   0  0  0  0  0  0  0  0  0  0  0  0
   46.0180   33.7060   44.7480 N   0  0  0  0  0  0  0  0  0  0  0  0
   47.7860   33.5000   39.8420 O   0  0  0  0  0  0  0  0  0  0  0  0
   48.4350   34.5830   37.4840 O   0  0  0  0  0  0  0  0  0  0  0  0
   48.4070   33.2930   38.2870 P   0  0  1  0  0  0  0  0  0  0  0  0
   50.0130   32.7450   38.4360 O   0  0  0  0  0  0  0  0  0  0  0  0
   47.5100   32.0990   37.4810 O   0  0  0  0  0  0  0  0  0  0  0  0
   46.4180   32.0500   35.2370 C   0  0  0  0  0  0  0  0  0  0  0  0
   47.5140   32.1440   36.0740 C   0  0  0  0  0  0  0  0  0  0  0  0
   48.7870   32.3020   35.5440 C   0  0  0  0  0  0  0  0  0  0  0  0
   48.9810   32.3670   34.1790 C   0  0  0  0  0  0  0  0  0  0  0  0
   50.0450   32.5110   33.3520 N   0  0  0  0  0  0  0  0  0  0  0  0
   49.6860   32.5130   32.0730 C   0  0  0  0  0  0  0  0  0  0  0  0
   48.3340   32.3640   32.0630 N   0  0  0  0  0  0  0  0  0  0  0  0
   47.8910   32.2740   33.3300 C   0  0  0  0  0  0  0  0  0  0  0  0
   46.6380   32.1190   33.8680 C   0  0  0  0  0  0  0  0  0  0  0  0
   46.9436   35.8522   42.1760 H   0  0  0  0  0  0  0  0  0  0  0  0
   49.7419   35.6375   41.6011 H   0  0  0  0  0  0  0  0  0  0  0  0
   49.7805   34.1245   41.9507 H   0  0  0  0  0  0  0  0  0  0  0  0
   47.9991   35.2342   39.3754 H   0  0  0  0  0  0  0  0  0  0  0  0
   46.0671   33.5572   41.6437 H   0  0  0  0  0  0  0  0  0  0  0  0
   47.5298   33.2172   42.7036 H   0  0  0  0  0  0  0  0  0  0  0  0
   45.3377   36.0379   42.4627 H   0  0  0  0  0  0  0  0  0  0  0  0
   43.9731   36.9451   44.3937 H   0  0  0  0  0  0  0  0  0  0  0  0
   45.3147   33.5991   46.7325 H   0  0  0  0  0  0  0  0  0  0  0  0
   50.2469   32.6652   39.3947 H   0  0  0  0  0  0  0  0  0  0  0  0
   45.4034   31.9245   35.6429 H   0  0  0  0  0  0  0  0  0  0  0  0
   49.6517   32.3763   36.2199 H   0  0  0  0  0  0  0  0  0  0  0  0
   51.0176   32.6075   33.6769 H   0  0  0  0  0  0  0  0  0  0  0  0
   50.3473   32.6145   31.1999 H   0  0  0  0  0  0  0  0  0  0  0  0
   45.7756   32.0467   33.1890 H   0  0  0  0  0  0  0  0  0  0  0  0
  1  4  1  0
  2  1  1  0
  3  2  1  0
  3  1  1  0
  4  5  1  0
  5 10  1  0
  6  5  2  0
  6  7  1  0
  7  8  2  0
  8  9  1  0
 10  9  2  0
 11  3  1  0
 13 12  2  0
 13 14  1  0
 13 11  1  0
 15 13  1  0
 16 17  2  0
 17 15  1  0
 18 17  1  0
 19 18  2  0
 20 19  1  0
 21 20  1  0
 22 21  2  0
 22 23  1  0
 23 24  2  0
 23 19  1  0
 24 16  1  0
  1 25  1  6
  2 26  1  0
  2 27  1  0
  3 28  1  6
  4 29  1  0
  4 30  1  0
  6 31  1  0
  7 32  1  0
  9 33  1  0
 14 34  1  0
 16 35  1  0
 18 36  1  0
 20 37  1  0
 21 38  1  0
 24 39  1  0
M  ISO  8  25  13  26  13  27  13  28  13  29   8  30   8  31  14  32  14
M  ISO  7  33  14  34   3  35  14  36  14  37   9  38  14  39  14
M  END
>  <minimizedAffinity>  (1) 
-5.97631216

>  <minimizedRMSD>  (1) 
0.902828813

$$$$
