
     RDKit          3D

 32 33  0  0  1  0  0  0  0  0999 V2000
   47.1300   33.5650   44.1410 C   0  0  0  0  0  0  0  0  0  0  0  0
   44.7460   36.2100   43.4400 C   0  0  1  0  0  0  0  0  0  0  0  0
   45.9380   35.4100   42.8860 C   0  0  0  0  0  0  0  0  0  0  0  0
   45.8040   34.1520   43.6600 C   0  0  2  0  0  0  0  0  0  0  0  0
   44.9340   34.3430   44.7110 O   0  0  0  0  0  0  0  0  0  0  0  0
   44.7100   35.6950   44.8510 C   0  0  0  0  0  0  0  0  0  0  0  0
   45.0240   37.5640   43.3680 O   0  0  0  0  0  0  0  0  0  0  0  0
   48.6050   32.1550   42.7910 C   0  0  0  0  0  0  0  0  0  0  0  0
   48.0530   33.3370   43.0060 C   0  0  0  0  0  0  0  0  0  0  0  0
   49.5060   31.9850   41.6610 C   0  0  0  0  0  0  0  0  0  0  0  0
   50.8890   31.8450   41.9220 C   0  0  0  0  0  0  0  0  0  0  0  0
   51.7720   31.6810   40.8550 C   0  0  0  0  0  0  0  0  0  0  0  0
   51.2430   31.6660   39.6070 N   0  0  0  0  0  0  0  0  0  0  0  0
   49.9150   31.8020   39.3820 C   0  0  0  0  0  0  0  0  0  0  0  0
   49.0620   31.9600   40.3990 N   0  0  0  0  0  0  0  0  0  0  0  0
   49.3950   31.7770   37.9810 C   0  0  0  0  0  0  0  0  0  0  0  0
   49.8590   30.7160   37.2560 F   0  0  0  0  0  0  0  0  0  0  0  0
   49.6860   33.0070   37.3830 F   0  0  0  0  0  0  0  0  0  0  0  0
   48.0160   31.6970   37.9870 F   0  0  0  0  0  0  0  0  0  0  0  0
   47.5972   34.2649   44.8494 H   0  0  0  0  0  0  0  0  0  0  0  0
   46.9292   32.5995   44.6284 H   0  0  0  0  0  0  0  0  0  0  0  0
   43.7891   36.0938   42.9100 H   0  0  0  0  0  0  0  0  0  0  0  0
   45.8409   35.2335   41.8046 H   0  0  0  0  0  0  0  0  0  0  0  0
   46.9125   35.9097   42.9894 H   0  0  0  0  0  0  0  0  0  0  0  0
   45.3967   33.4009   42.9672 H   0  0  0  0  0  0  0  0  0  0  0  0
   45.4984   36.1623   45.4593 H   0  0  0  0  0  0  0  0  0  0  0  0
   43.7624   35.9194   45.3626 H   0  0  0  0  0  0  0  0  0  0  0  0
   45.1000   37.9344   44.2830 H   0  0  0  0  0  0  0  0  0  0  0  0
   48.3855   31.3092   43.4591 H   0  0  0  0  0  0  0  0  0  0  0  0
   48.2848   34.1701   42.3261 H   0  0  0  0  0  0  0  0  0  0  0  0
   51.2643   31.8653   42.9558 H   0  0  0  0  0  0  0  0  0  0  0  0
   52.8538   31.5684   41.0195 H   0  0  0  0  0  0  0  0  0  0  0  0
  2  6  1  0
  3  2  1  0
  3  4  1  0
  4  1  1  0
  4  5  1  0
  5  6  1  0
  7  2  1  0
  8  9  2  0
  9  1  1  0
 10 11  2  0
 10  8  1  0
 12 11  1  0
 13 12  2  0
 14 13  1  0
 14 15  2  0
 15 10  1  0
 16 19  1  0
 16 14  1  0
 17 16  1  0
 18 16  1  0
  1 20  1  0
  1 21  1  0
  2 22  1  6
  3 23  1  0
  3 24  1  0
  4 25  1  6
  6 26  1  0
  6 27  1  0
  7 28  1  0
  8 29  1  0
  9 30  1  0
 11 31  1  0
 12 32  1  0
M  ISO  8  20   8  21   8  22  13  23  13  24  13  25  13  26  13  27  13
M  ISO  3  28   3  31  14  32  14
M  END
>  <minimizedAffinity>  (1) 
-4.43659544

>  <minimizedRMSD>  (1) 
0.183696955

$$$$
