
     RDKit          3D

 34 36  0  0  1  0  0  0  0  0999 V2000
   47.6230   35.2340   41.8530 C   0  0  1  0  0  0  0  0  0  0  0  0
   49.1330   35.3850   41.6970 C   0  0  0  0  0  0  0  0  0  0  0  0
   48.2720   34.9650   40.5270 C   0  0  1  0  0  0  0  0  0  0  0  0
   47.1590   34.0390   42.5820 C   0  0  0  0  0  0  0  0  0  0  0  0
   46.2960   34.3220   43.7410 C   0  0  0  0  0  0  0  0  0  0  0  0
   45.4690   35.3990   43.5620 C   0  0  0  0  0  0  0  0  0  0  0  0
   44.5950   35.7960   44.5850 C   0  0  0  0  0  0  0  0  0  0  0  0
   44.6410   35.0370   45.7350 N   0  0  0  0  0  0  0  0  0  0  0  0
   45.4640   33.9800   45.8880 C   0  0  0  0  0  0  0  0  0  0  0  0
   46.2740   33.6400   44.8960 N   0  0  0  0  0  0  0  0  0  0  0  0
   48.3400   33.6570   40.1210 O   0  0  0  0  0  0  0  0  0  0  0  0
   48.5100   34.8440   37.7340 O   0  0  0  0  0  0  0  0  0  0  0  0
   48.4410   33.5030   38.4450 P   0  0  1  0  0  0  0  0  0  0  0  0
   49.8750   32.6550   38.0760 O   0  0  0  0  0  0  0  0  0  0  0  0
   47.1090   32.5990   37.9010 O   0  0  0  0  0  0  0  0  0  0  0  0
   46.9760   32.3900   36.5340 C   0  0  0  0  0  0  0  0  0  0  0  0
   45.7500   32.3840   35.9040 C   0  0  0  0  0  0  0  0  0  0  0  0
   45.5420   32.1840   34.5550 C   0  0  0  0  0  0  0  0  0  0  0  0
   46.6710   31.9830   33.8390 N   0  0  0  0  0  0  0  0  0  0  0  0
   47.8940   31.9780   34.3990 C   0  0  0  0  0  0  0  0  0  0  0  0
   48.0420   32.1810   35.7350 N   0  0  0  0  0  0  0  0  0  0  0  0
   46.8128   35.8854   42.2125 H   0  0  0  0  0  0  0  0  0  0  0  0
   49.5927   36.3842   41.7137 H   0  0  0  0  0  0  0  0  0  0  0  0
   50.0172   34.9731   42.2054 H   0  0  0  0  0  0  0  0  0  0  0  0
   48.1316   35.3391   39.5021 H   0  0  0  0  0  0  0  0  0  0  0  0
   46.5943   33.4074   41.8804 H   0  0  0  0  0  0  0  0  0  0  0  0
   48.0598   33.5473   42.9780 H   0  0  0  0  0  0  0  0  0  0  0  0
   45.4902   35.9546   42.6129 H   0  0  0  0  0  0  0  0  0  0  0  0
   43.9178   36.6560   44.4767 H   0  0  0  0  0  0  0  0  0  0  0  0
   45.4630   33.4060   46.8264 H   0  0  0  0  0  0  0  0  0  0  0  0
   50.3261   32.3883   38.9159 H   0  0  0  0  0  0  0  0  0  0  0  0
   44.8617   32.5531   36.5304 H   0  0  0  0  0  0  0  0  0  0  0  0
   44.5407   32.1878   34.0997 H   0  0  0  0  0  0  0  0  0  0  0  0
   48.7811   31.8084   33.7711 H   0  0  0  0  0  0  0  0  0  0  0  0
  1  4  1  0
  2  1  1  0
  3  2  1  0
  3  1  1  0
  4  5  1  0
  5 10  1  0
  6  5  2  0
  6  7  1  0
  7  8  2  0
  8  9  1  0
 10  9  2  0
 11  3  1  0
 13 12  2  0
 13 11  1  0
 14 13  1  0
 15 13  1  0
 16 15  1  0
 17 16  2  0
 18 17  1  0
 19 20  1  0
 19 18  2  0
 20 21  2  0
 21 16  1  0
  1 22  1  6
  2 23  1  0
  2 24  1  0
  3 25  1  6
  4 26  1  0
  4 27  1  0
  6 28  1  0
  7 29  1  0
  9 30  1  0
 14 31  1  0
 17 32  1  0
 18 33  1  0
 20 34  1  0
M  ISO  8  22  13  23  13  24  13  25  13  26   8  27   8  28  14  29  14
M  ISO  5  30  14  31   3  32  14  33  14  34  14
M  END
>  <minimizedAffinity>  (1) 
-5.19392776

>  <minimizedRMSD>  (1) 
0.955779731

$$$$
