
     RDKit          3D

 43 46  0  0  1  0  0  0  0  0999 V2000
   46.8210   33.0090   38.7320 N   0  0  0  0  0  0  0  0  0  0  0  0
   45.9190   33.3150   37.6260 C   0  0  0  0  0  0  0  0  0  0  0  0
   45.1410   32.0930   37.1980 C   0  0  0  0  0  0  0  0  0  0  0  0
   46.0080   31.0870   36.6420 N   0  0  0  0  0  0  0  0  0  0  0  0
   47.3760   31.3260   37.1230 C   0  0  0  0  0  0  0  0  0  0  0  0
   47.3320   31.6320   38.6020 C   0  0  1  0  0  0  0  0  0  0  0  0
   44.9590   32.8680   41.2380 Br  0  0  0  0  0  0  0  0  0  0  0  0
   46.5230   33.9280   40.9950 C   0  0  0  0  0  0  0  0  0  0  0  0
   46.9560   34.7610   41.9960 C   0  0  0  0  0  0  0  0  0  0  0  0
   48.1070   35.5520   41.8360 C   0  0  0  0  0  0  0  0  0  0  0  0
   48.7810   35.4630   40.6530 C   0  0  0  0  0  0  0  0  0  0  0  0
   48.3200   34.6140   39.6650 C   0  0  0  0  0  0  0  0  0  0  0  0
   47.2060   33.8450   39.8100 C   0  0  0  0  0  0  0  0  0  0  0  0
   45.7430   33.9560   45.3480 C   0  0  0  0  0  0  0  0  0  0  0  0
   44.7580   34.9350   45.5970 C   0  0  0  0  0  0  0  0  0  0  0  0
   44.5340   35.8630   44.5850 C   0  0  0  0  0  0  0  0  0  0  0  0
   45.2570   35.7700   43.4550 N   0  0  0  0  0  0  0  0  0  0  0  0
   46.2000   34.8180   43.2380 C   0  0  0  0  0  0  0  0  0  0  0  0
   46.4210   33.9210   44.2080 N   0  0  0  0  0  0  0  0  0  0  0  0
   48.5850   31.4130   39.3140 C   0  0  0  0  0  0  0  0  0  0  0  0
   48.7920   31.0560   40.6300 C   0  0  0  0  0  0  0  0  0  0  0  0
   50.0540   30.8870   41.1610 C   0  0  0  0  0  0  0  0  0  0  0  0
   51.1620   31.0780   40.3590 C   0  0  0  0  0  0  0  0  0  0  0  0
   50.9320   31.4350   39.0440 C   0  0  0  0  0  0  0  0  0  0  0  0
   49.6970   31.5960   38.5430 N   0  0  0  0  0  0  0  0  0  0  0  0
   45.2129   34.0957   37.9450 H   0  0  0  0  0  0  0  0  0  0  0  0
   46.5209   33.6599   36.7724 H   0  0  0  0  0  0  0  0  0  0  0  0
   44.6220   31.6745   38.0729 H   0  0  0  0  0  0  0  0  0  0  0  0
   44.4199   32.3949   36.4242 H   0  0  0  0  0  0  0  0  0  0  0  0
   45.9876   31.1417   35.6137 H   0  0  0  0  0  0  0  0  0  0  0  0
   47.9894   30.4294   36.9502 H   0  0  0  0  0  0  0  0  0  0  0  0
   47.8169   32.1756   36.5811 H   0  0  0  0  0  0  0  0  0  0  0  0
   46.6625   30.9144   39.0987 H   0  0  0  0  0  0  0  0  0  0  0  0
   48.4529   36.2206   42.6380 H   0  0  0  0  0  0  0  0  0  0  0  0
   49.6870   36.0642   40.4866 H   0  0  0  0  0  0  0  0  0  0  0  0
   48.8782   34.5569   38.7189 H   0  0  0  0  0  0  0  0  0  0  0  0
   45.9546   33.2013   46.1198 H   0  0  0  0  0  0  0  0  0  0  0  0
   44.1963   34.9631   46.5423 H   0  0  0  0  0  0  0  0  0  0  0  0
   43.7814   36.6560   44.7066 H   0  0  0  0  0  0  0  0  0  0  0  0
   47.9185   30.9003   41.2802 H   0  0  0  0  0  0  0  0  0  0  0  0
   50.1770   30.6020   42.2163 H   0  0  0  0  0  0  0  0  0  0  0  0
   52.1825   30.9515   40.7497 H   0  0  0  0  0  0  0  0  0  0  0  0
   51.7955   31.5936   38.3812 H   0  0  0  0  0  0  0  0  0  0  0  0
  1 13  1  0
  2  1  1  0
  3  2  1  0
  4  5  1  0
  4  3  1  0
  5  6  1  0
  6  1  1  0
  6 20  1  0
  8  7  1  0
  8  9  2  0
  9 18  1  0
 10  9  1  0
 11 10  2  0
 12 13  2  0
 12 11  1  0
 13  8  1  0
 14 15  2  0
 16 15  1  0
 17 16  2  0
 18 17  1  0
 18 19  2  0
 19 14  1  0
 20 21  2  0
 21 22  1  0
 23 22  2  0
 24 23  1  0
 25 24  2  0
 25 20  1  0
  2 26  1  0
  2 27  1  0
  3 28  1  0
  3 29  1  0
  4 30  1  0
  5 31  1  0
  5 32  1  0
  6 33  1  1
 10 34  1  0
 11 35  1  0
 12 36  1  0
 14 37  1  0
 15 38  1  0
 16 39  1  0
 21 40  1  0
 22 41  1  0
 23 42  1  0
 24 43  1  0
M  ISO  8  26  13  27  13  28  13  29  13  30   5  31  13  32  13  33  13
M  ISO  8  34  14  35  14  36  14  37  14  38  14  39  14  40  14  41  14
M  ISO  2  42  14  43  14
M  END
>  <minimizedAffinity>  (1) 
-5.79449177

>  <minimizedRMSD>  (1) 
0.324123859

$$$$
