
     RDKit          3D

 35 36  0  0  1  0  0  0  0  0999 V2000
   47.1450   33.5820   44.1190 C   0  0  0  0  0  0  0  0  0  0  0  0
   44.7410   36.1970   43.4300 C   0  0  1  0  0  0  0  0  0  0  0  0
   45.9340   35.4100   42.8850 C   0  0  0  0  0  0  0  0  0  0  0  0
   45.8020   34.1480   43.6520 C   0  0  2  0  0  0  0  0  0  0  0  0
   44.9500   34.3370   44.7160 O   0  0  0  0  0  0  0  0  0  0  0  0
   44.6960   35.6820   44.8530 C   0  0  0  0  0  0  0  0  0  0  0  0
   45.0150   37.5610   43.3870 O   0  0  0  0  0  0  0  0  0  0  0  0
   48.6940   32.1670   42.8360 C   0  0  0  0  0  0  0  0  0  0  0  0
   48.0250   33.2940   42.9730 C   0  0  0  0  0  0  0  0  0  0  0  0
   49.5330   31.9810   41.6700 C   0  0  0  0  0  0  0  0  0  0  0  0
   50.9140   31.8900   41.8750 C   0  0  0  0  0  0  0  0  0  0  0  0
   51.7740   31.7110   40.7690 C   0  0  0  0  0  0  0  0  0  0  0  0
   51.2060   31.6340   39.5400 N   0  0  0  0  0  0  0  0  0  0  0  0
   49.8710   31.7260   39.3770 C   0  0  0  0  0  0  0  0  0  0  0  0
   49.0770   31.8960   40.4360 N   0  0  0  0  0  0  0  0  0  0  0  0
   49.1710   31.6520   38.0690 C   0  0  0  0  0  0  0  0  0  0  0  0
   49.1460   32.9990   37.3750 C   0  0  0  0  0  0  0  0  0  0  0  0
   47.6365   34.3165   44.7740 H   0  0  0  0  0  0  0  0  0  0  0  0
   46.9595   32.6437   44.6623 H   0  0  0  0  0  0  0  0  0  0  0  0
   43.7971   36.0721   42.8791 H   0  0  0  0  0  0  0  0  0  0  0  0
   45.8457   35.2377   41.8022 H   0  0  0  0  0  0  0  0  0  0  0  0
   46.9049   35.9145   42.9983 H   0  0  0  0  0  0  0  0  0  0  0  0
   45.3795   33.3957   42.9697 H   0  0  0  0  0  0  0  0  0  0  0  0
   45.4662   36.1666   45.4710 H   0  0  0  0  0  0  0  0  0  0  0  0
   43.7383   35.8883   45.3532 H   0  0  0  0  0  0  0  0  0  0  0  0
   45.0856   37.9126   44.3097 H   0  0  0  0  0  0  0  0  0  0  0  0
   48.6163   31.3772   43.5977 H   0  0  0  0  0  0  0  0  0  0  0  0
   48.1290   34.0601   42.1905 H   0  0  0  0  0  0  0  0  0  0  0  0
   51.3277   31.9575   42.8920 H   0  0  0  0  0  0  0  0  0  0  0  0
   52.8637   31.6368   40.8996 H   0  0  0  0  0  0  0  0  0  0  0  0
   49.6920   30.9280   37.4253 H   0  0  0  0  0  0  0  0  0  0  0  0
   48.1325   31.3383   38.2508 H   0  0  0  0  0  0  0  0  0  0  0  0
   49.1311   33.7997   38.1290 H   0  0  0  0  0  0  0  0  0  0  0  0
   50.0423   33.1041   36.7461 H   0  0  0  0  0  0  0  0  0  0  0  0
   48.2464   33.0708   36.7461 H   0  0  0  0  0  0  0  0  0  0  0  0
  2  6  1  0
  3  2  1  0
  3  4  1  0
  4  1  1  0
  4  5  1  0
  5  6  1  0
  7  2  1  0
  8  9  2  0
  9  1  1  0
 10 11  2  0
 10  8  1  0
 12 11  1  0
 13 12  2  0
 14 13  1  0
 14 15  2  0
 15 10  1  0
 16 14  1  0
 17 16  1  0
  1 18  1  0
  1 19  1  0
  2 20  1  6
  3 21  1  0
  3 22  1  0
  4 23  1  6
  6 24  1  0
  6 25  1  0
  7 26  1  0
  8 27  1  0
  9 28  1  0
 11 29  1  0
 12 30  1  0
 16 31  1  0
 16 32  1  0
 17 33  1  0
 17 34  1  0
 17 35  1  0
M  ISO  8  18   8  19   8  20  13  21  13  22  13  23  13  24  13  25  13
M  ISO  8  26   3  29  14  30  14  31   8  32   8  33   8  34   8  35   8
M  END
>  <minimizedAffinity>  (1) 
-4.27672815

>  <minimizedRMSD>  (1) 
0.249599636

$$$$
