
     RDKit          3D

 21 22  0  0  0  0  0  0  0  0999 V2000
   44.5510   35.4310   45.1560 C   0  0  0  0  0  0  0  0  0  0  0  0
   45.2220   35.2590   43.9270 C   0  0  0  0  0  0  0  0  0  0  0  0
   46.1570   34.2410   43.7750 C   0  0  0  0  0  0  0  0  0  0  0  0
   46.3940   33.4270   44.8520 N   0  0  0  0  0  0  0  0  0  0  0  0
   45.7400   33.6110   46.0190 C   0  0  0  0  0  0  0  0  0  0  0  0
   44.8300   34.5930   46.1850 N   0  0  0  0  0  0  0  0  0  0  0  0
   46.0140   32.7230   47.1560 C   0  0  0  0  0  0  0  0  0  0  0  0
   47.2690   32.2920   47.4300 C   0  0  0  0  0  0  0  0  0  0  0  0
   47.5750   31.4610   48.4820 C   0  0  0  0  0  0  0  0  0  0  0  0
   46.5290   31.0700   49.2730 N   0  0  0  0  0  0  0  0  0  0  0  0
   45.2840   31.5030   48.9940 C   0  0  0  0  0  0  0  0  0  0  0  0
   44.9820   32.3210   47.9580 N   0  0  0  0  0  0  0  0  0  0  0  0
   44.9530   36.1550   42.7630 C   0  0  0  0  0  0  0  0  0  0  0  0
   43.8104   36.2352   45.2781 H   0  0  0  0  0  0  0  0  0  0  0  0
   46.6882   34.0940   42.8231 H   0  0  0  0  0  0  0  0  0  0  0  0
   48.0877   32.6250   46.7752 H   0  0  0  0  0  0  0  0  0  0  0  0
   48.6052   31.1284   48.6772 H   0  0  0  0  0  0  0  0  0  0  0  0
   44.4633   31.1720   49.6473 H   0  0  0  0  0  0  0  0  0  0  0  0
   44.6545   37.1492   43.1269 H   0  0  0  0  0  0  0  0  0  0  0  0
   45.8634   36.2461   42.1524 H   0  0  0  0  0  0  0  0  0  0  0  0
   44.1430   35.7296   42.1524 H   0  0  0  0  0  0  0  0  0  0  0  0
  1  6  2  0
  2  1  1  0
  3  2  2  0
  3  4  1  0
  4  5  2  0
  5  6  1  0
  5  7  1  0
  7  8  2  0
  7 12  1  0
  8  9  1  0
  9 10  2  0
 11 10  1  0
 12 11  2  0
 13  2  1  0
  1 14  1  0
  3 15  1  0
  8 16  1  0
  9 17  1  0
 11 18  1  0
 13 19  1  0
 13 20  1  0
 13 21  1  0
M  ISO  8  14  14  15  14  16  14  17  14  18  14  19   8  20   8  21   8
M  END
>  <minimizedAffinity>  (1) 
-4.64838266

>  <minimizedRMSD>  (1) 
0.732413352

$$$$
