
     RDKit          3D

 27 29  0  0  0  0  0  0  0  0999 V2000
   45.5250   34.0100   44.8690 C   0  0  0  0  0  0  0  0  0  0  0  0
   45.1650   33.2370   43.7640 C   0  0  0  0  0  0  0  0  0  0  0  0
   45.4960   31.8870   43.6910 C   0  0  0  0  0  0  0  0  0  0  0  0
   46.1860   31.3840   44.7580 N   0  0  0  0  0  0  0  0  0  0  0  0
   46.5290   32.1480   45.8250 C   0  0  0  0  0  0  0  0  0  0  0  0
   46.2020   33.4570   45.8850 N   0  0  0  0  0  0  0  0  0  0  0  0
   47.2630   31.5500   46.9280 C   0  0  0  0  0  0  0  0  0  0  0  0
   47.5690   30.2330   46.9610 C   0  0  0  0  0  0  0  0  0  0  0  0
   48.2640   29.6320   47.9950 C   0  0  0  0  0  0  0  0  0  0  0  0
   48.6440   30.4570   49.0160 N   0  0  0  0  0  0  0  0  0  0  0  0
   48.3420   31.7620   48.9820 C   0  0  0  0  0  0  0  0  0  0  0  0
   47.6570   32.3550   47.9690 N   0  0  0  0  0  0  0  0  0  0  0  0
   44.4300   33.9150   42.7040 C   0  0  0  0  0  0  0  0  0  0  0  0
   44.4590   35.2710   42.4600 C   0  0  0  0  0  0  0  0  0  0  0  0
   43.7380   35.8560   41.4370 C   0  0  0  0  0  0  0  0  0  0  0  0
   42.9490   35.0840   40.6080 C   0  0  0  0  0  0  0  0  0  0  0  0
   42.9350   33.7290   40.8680 C   0  0  0  0  0  0  0  0  0  0  0  0
   43.6530   33.1900   41.8790 N   0  0  0  0  0  0  0  0  0  0  0  0
   45.2526   35.0751   44.9061 H   0  0  0  0  0  0  0  0  0  0  0  0
   45.2193   31.2636   42.8279 H   0  0  0  0  0  0  0  0  0  0  0  0
   47.2470   29.6042   46.1178 H   0  0  0  0  0  0  0  0  0  0  0  0
   48.4964   28.5568   47.9954 H   0  0  0  0  0  0  0  0  0  0  0  0
   48.6678   32.3906   49.8239 H   0  0  0  0  0  0  0  0  0  0  0  0
   45.0795   35.9116   43.1039 H   0  0  0  0  0  0  0  0  0  0  0  0
   43.7930   36.9436   41.2821 H   0  0  0  0  0  0  0  0  0  0  0  0
   42.3645   35.5242   39.7866 H   0  0  0  0  0  0  0  0  0  0  0  0
   42.3230   33.0692   40.2355 H   0  0  0  0  0  0  0  0  0  0  0  0
  1  6  2  0
  2  1  1  0
  3  2  2  0
  3  4  1  0
  4  5  2  0
  5  6  1  0
  5  7  1  0
  7  8  2  0
  7 12  1  0
  8  9  1  0
  9 10  2  0
 11 10  1  0
 12 11  2  0
 13  2  1  0
 14 13  2  0
 15 14  1  0
 16 17  1  0
 16 15  2  0
 17 18  2  0
 18 13  1  0
  1 19  1  0
  3 20  1  0
  8 21  1  0
  9 22  1  0
 11 23  1  0
 14 24  1  0
 15 25  1  0
 16 26  1  0
 17 27  1  0
M  ISO  8  19  14  20  14  21  14  22  14  23  14  24  14  25  14  26  14
M  ISO  1  27  14
M  END
>  <minimizedAffinity>  (1) 
-4.54665375

>  <minimizedRMSD>  (1) 
2.72287488

$$$$
