
     RDKit          3D

 22 23  0  0  0  0  0  0  0  0999 V2000
   44.5480   35.3850   45.2680 C   0  0  0  0  0  0  0  0  0  0  0  0
   45.1770   35.2000   44.0380 C   0  0  0  0  0  0  0  0  0  0  0  0
   46.1030   34.1640   43.8440 C   0  0  0  0  0  0  0  0  0  0  0  0
   46.3340   33.3680   44.9330 N   0  0  0  0  0  0  0  0  0  0  0  0
   45.7400   33.5370   46.1080 C   0  0  0  0  0  0  0  0  0  0  0  0
   44.8500   34.5430   46.2700 N   0  0  0  0  0  0  0  0  0  0  0  0
   46.0230   32.6640   47.2290 C   0  0  0  0  0  0  0  0  0  0  0  0
   47.2780   32.2310   47.5160 C   0  0  0  0  0  0  0  0  0  0  0  0
   47.5840   31.4060   48.5680 C   0  0  0  0  0  0  0  0  0  0  0  0
   46.5380   31.0230   49.3440 N   0  0  0  0  0  0  0  0  0  0  0  0
   45.3090   31.4480   49.0630 C   0  0  0  0  0  0  0  0  0  0  0  0
   45.0010   32.2580   48.0310 N   0  0  0  0  0  0  0  0  0  0  0  0
   44.8500   36.1130   42.9510 C   0  0  0  0  0  0  0  0  0  0  0  0
   44.5010   35.6190   41.8550 O   0  0  0  0  0  0  0  0  0  0  0  0
   44.9880   37.4800   43.3390 N   0  0  0  0  0  0  0  0  0  0  0  0
   43.8231   36.1994   45.4143 H   0  0  0  0  0  0  0  0  0  0  0  0
   46.6095   34.0024   42.8810 H   0  0  0  0  0  0  0  0  0  0  0  0
   48.0998   32.5626   46.8643 H   0  0  0  0  0  0  0  0  0  0  0  0
   48.6133   31.0751   48.7705 H   0  0  0  0  0  0  0  0  0  0  0  0
   44.4892   31.1159   49.7170 H   0  0  0  0  0  0  0  0  0  0  0  0
   44.7868   38.2302   42.6625 H   0  0  0  0  0  0  0  0  0  0  0  0
   45.2888   37.7160   44.2954 H   0  0  0  0  0  0  0  0  0  0  0  0
  1  6  2  0
  2  1  1  0
  3  2  2  0
  3  4  1  0
  4  5  2  0
  5  6  1  0
  5  7  1  0
  7  8  2  0
  7 12  1  0
  8  9  1  0
  9 10  2  0
 11 10  1  0
 12 11  2  0
 13 15  1  0
 13  2  1  0
 14 13  2  0
  1 16  1  0
  3 17  1  0
  8 18  1  0
  9 19  1  0
 11 20  1  0
 15 21  1  0
 15 22  1  0
M  ISO  5  16  14  17  14  18  14  19  14  20  14
M  END
>  <minimizedAffinity>  (1) 
-5.11265755

>  <minimizedRMSD>  (1) 
0.247052908

$$$$
