
     RDKit          3D

 24 25  0  0  0  0  0  0  0  0999 V2000
   45.7770   33.4800   46.3220 C   0  0  0  0  0  0  0  0  0  0  0  0
   45.8000   33.1840   44.9660 C   0  0  0  0  0  0  0  0  0  0  0  0
   46.5880   32.1210   44.4870 C   0  0  0  0  0  0  0  0  0  0  0  0
   47.3110   31.4170   45.4200 N   0  0  0  0  0  0  0  0  0  0  0  0
   47.2670   31.7280   46.7210 C   0  0  0  0  0  0  0  0  0  0  0  0
   46.5080   32.7490   47.1680 N   0  0  0  0  0  0  0  0  0  0  0  0
   48.0520   30.9530   47.6790 C   0  0  0  0  0  0  0  0  0  0  0  0
   48.4400   29.6810   47.4590 C   0  0  0  0  0  0  0  0  0  0  0  0
   49.1750   28.9390   48.3460 C   0  0  0  0  0  0  0  0  0  0  0  0
   49.5150   29.5510   49.5030 N   0  0  0  0  0  0  0  0  0  0  0  0
   49.1320   30.8150   49.7260 C   0  0  0  0  0  0  0  0  0  0  0  0
   48.4110   31.5560   48.8650 N   0  0  0  0  0  0  0  0  0  0  0  0
   45.0010   33.9870   44.0630 C   0  0  0  0  0  0  0  0  0  0  0  0
   44.5710   33.4330   43.0220 O   0  0  0  0  0  0  0  0  0  0  0  0
   44.5830   35.3010   44.0890 O   0  0  0  0  0  0  0  0  0  0  0  0
   45.1100   36.1900   43.1070 C   0  0  0  0  0  0  0  0  0  0  0  0
   44.2970   36.2490   42.0040 F   0  0  0  0  0  0  0  0  0  0  0  0
   45.1770   37.4160   43.6950 F   0  0  0  0  0  0  0  0  0  0  0  0
   46.3770   35.7460   42.7270 F   0  0  0  0  0  0  0  0  0  0  0  0
   45.1612   34.3106   46.6972 H   0  0  0  0  0  0  0  0  0  0  0  0
   46.6236   31.8659   43.4176 H   0  0  0  0  0  0  0  0  0  0  0  0
   48.1486   29.2096   46.5088 H   0  0  0  0  0  0  0  0  0  0  0  0
   49.4722   27.9024   48.1289 H   0  0  0  0  0  0  0  0  0  0  0  0
   49.4272   31.2791   50.6786 H   0  0  0  0  0  0  0  0  0  0  0  0
  1  6  2  0
  2  1  1  0
  3  2  2  0
  3  4  1  0
  4  5  2  0
  5  6  1  0
  5  7  1  0
  7 12  1  0
  8  7  2  0
  8  9  1  0
  9 10  2  0
 10 11  1  0
 12 11  2  0
 13 15  1  0
 13  2  1  0
 14 13  2  0
 16 18  1  0
 16 15  1  0
 17 16  1  0
 19 16  1  0
  1 20  1  0
  3 21  1  0
  8 22  1  0
  9 23  1  0
 11 24  1  0
M  ISO  5  20  14  21  14  22  14  23  14  24  14
M  END
>  <minimizedAffinity>  (1) 
-4.69968557

>  <minimizedRMSD>  (1) 
2.69982004

$$$$
