
     RDKit          3D

 29 30  0  0  0  0  0  0  0  0999 V2000
   44.8910   35.0350   44.5340 C   0  0  0  0  0  0  0  0  0  0  0  0
   44.9540   34.3060   43.3670 C   0  0  0  0  0  0  0  0  0  0  0  0
   45.3920   32.9710   43.3720 C   0  0  0  0  0  0  0  0  0  0  0  0
   45.7480   32.4350   44.5860 N   0  0  0  0  0  0  0  0  0  0  0  0
   45.6780   33.1570   45.7060 C   0  0  0  0  0  0  0  0  0  0  0  0
   45.2580   34.4300   45.6740 N   0  0  0  0  0  0  0  0  0  0  0  0
   46.0610   32.5630   46.9750 C   0  0  0  0  0  0  0  0  0  0  0  0
   47.3340   32.2530   47.2940 C   0  0  0  0  0  0  0  0  0  0  0  0
   47.7160   31.6930   48.4830 C   0  0  0  0  0  0  0  0  0  0  0  0
   46.7220   31.4480   49.3770 N   0  0  0  0  0  0  0  0  0  0  0  0
   45.4620   31.7510   49.0700 C   0  0  0  0  0  0  0  0  0  0  0  0
   45.0740   32.3000   47.9090 N   0  0  0  0  0  0  0  0  0  0  0  0
   44.5600   34.9330   42.1110 C   0  0  0  0  0  0  0  0  0  0  0  0
   45.2920   34.7590   41.1150 O   0  0  0  0  0  0  0  0  0  0  0  0
   43.4930   35.7220   41.7640 O   0  0  0  0  0  0  0  0  0  0  0  0
   42.4880   35.3090   40.9230 C   0  0  0  0  0  0  0  0  0  0  0  0
   41.0970   35.6950   41.4100 C   0  0  0  0  0  0  0  0  0  0  0  0
   40.5660   34.5020   42.0840 N   0  0  0  0  0  0  0  0  0  0  0  0
   44.5503   36.0809   44.5314 H   0  0  0  0  0  0  0  0  0  0  0  0
   45.4474   32.3811   42.4452 H   0  0  0  0  0  0  0  0  0  0  0  0
   48.1164   32.4639   46.5501 H   0  0  0  0  0  0  0  0  0  0  0  0
   48.7672   31.4549   48.7025 H   0  0  0  0  0  0  0  0  0  0  0  0
   44.6862   31.5364   49.8198 H   0  0  0  0  0  0  0  0  0  0  0  0
   42.5352   34.2136   40.8343 H   0  0  0  0  0  0  0  0  0  0  0  0
   42.6454   35.8106   39.9568 H   0  0  0  0  0  0  0  0  0  0  0  0
   41.1574   36.5381   42.1139 H   0  0  0  0  0  0  0  0  0  0  0  0
   40.4501   36.0136   40.5793 H   0  0  0  0  0  0  0  0  0  0  0  0
   40.6231   34.6302   43.1044 H   0  0  0  0  0  0  0  0  0  0  0  0
   39.5831   34.3618   41.8100 H   0  0  0  0  0  0  0  0  0  0  0  0
  1  6  2  0
  2  3  2  0
  2  1  1  0
  3  4  1  0
  4  5  2  0
  5  7  1  0
  6  5  1  0
  7  8  2  0
  7 12  1  0
  8  9  1  0
  9 10  2  0
 11 10  1  0
 12 11  2  0
 13  2  1  0
 14 13  2  0
 15 13  1  0
 16 17  1  0
 16 15  1  0
 17 18  1  0
  1 19  1  0
  3 20  1  0
  8 21  1  0
  9 22  1  0
 11 23  1  0
 16 24  1  0
 16 25  1  0
 17 26  1  0
 17 27  1  0
 18 28  1  0
 18 29  1  0
M  ISO  8  19  14  20  14  21  14  22  14  23  14  24   8  25   8  26   8
M  ISO  3  27   8  28   5  29   5
M  END
>  <minimizedAffinity>  (1) 
-4.7132678

>  <minimizedRMSD>  (1) 
0.275215596

$$$$
