
     RDKit          3D

 26 27  0  0  0  0  0  0  0  0999 V2000
   48.4710   33.1800   42.2020 C   0  0  0  0  0  0  0  0  0  0  0  0
   47.1640   33.1000   42.6520 C   0  0  0  0  0  0  0  0  0  0  0  0
   46.7690   31.9340   43.3460 C   0  0  0  0  0  0  0  0  0  0  0  0
   47.7000   30.9560   43.5300 N   0  0  0  0  0  0  0  0  0  0  0  0
   48.9720   31.0780   43.0700 C   0  0  0  0  0  0  0  0  0  0  0  0
   49.3360   32.1770   42.4200 N   0  0  0  0  0  0  0  0  0  0  0  0
   46.1010   34.0770   42.4870 C   0  0  0  0  0  0  0  0  0  0  0  0
   45.7510   35.1840   43.2280 C   0  0  0  0  0  0  0  0  0  0  0  0
   44.6930   35.9830   42.8900 C   0  0  0  0  0  0  0  0  0  0  0  0
   43.9030   35.7380   41.7870 C   0  0  0  0  0  0  0  0  0  0  0  0
   44.2080   34.6430   41.0080 C   0  0  0  0  0  0  0  0  0  0  0  0
   45.2790   33.8530   41.3700 C   0  0  0  0  0  0  0  0  0  0  0  0
   48.9320   34.3660   41.4860 C   0  0  0  0  0  0  0  0  0  0  0  0
   49.7150   35.2480   42.4250 C   0  0  0  0  0  0  0  0  0  0  0  0
   45.7429   31.8195   43.7255 H   0  0  0  0  0  0  0  0  0  0  0  0
   49.6985   30.2688   43.2354 H   0  0  0  0  0  0  0  0  0  0  0  0
   46.3419   35.4341   44.1215 H   0  0  0  0  0  0  0  0  0  0  0  0
   44.4641   36.8536   43.5221 H   0  0  0  0  0  0  0  0  0  0  0  0
   43.0570   36.3951   41.5370 H   0  0  0  0  0  0  0  0  0  0  0  0
   43.6099   34.4040   40.1163 H   0  0  0  0  0  0  0  0  0  0  0  0
   45.5065   32.9827   40.7369 H   0  0  0  0  0  0  0  0  0  0  0  0
   49.5754   34.0610   40.6475 H   0  0  0  0  0  0  0  0  0  0  0  0
   48.0644   34.9211   41.0998 H   0  0  0  0  0  0  0  0  0  0  0  0
   49.4766   34.9794   43.4647 H   0  0  0  0  0  0  0  0  0  0  0  0
   50.7915   35.1078   42.2477 H   0  0  0  0  0  0  0  0  0  0  0  0
   49.4482   36.3003   42.2477 H   0  0  0  0  0  0  0  0  0  0  0  0
  1  6  2  0
  1  2  1  0
  2  3  2  0
  3  4  1  0
  5  4  2  0
  6  5  1  0
  7  2  1  0
  7  8  2  0
  9  8  1  0
 10  9  2  0
 11 12  2  0
 11 10  1  0
 12  7  1  0
 13  1  1  0
 13 14  1  0
  3 15  1  0
  5 16  1  0
  8 17  1  0
  9 18  1  0
 10 19  1  0
 11 20  1  0
 12 21  1  0
 13 22  1  0
 13 23  1  0
 14 24  1  0
 14 25  1  0
 14 26  1  0
M  ISO  8  15  14  16  14  17  14  18  14  19  14  20  14  21  14  22   8
M  ISO  4  23   8  24   8  25   8  26   8
M  END
>  <minimizedAffinity>  (1) 
-3.72634196

>  <minimizedRMSD>  (1) 
3.50033545

$$$$
