
     RDKit          3D

 19 19  0  0  0  0  0  0  0  0999 V2000
   47.6890   34.1280   42.4260 C   0  0  0  0  0  0  0  0  0  0  0  0
   46.9390   34.2850   41.2740 C   0  0  0  0  0  0  0  0  0  0  0  0
   45.5510   34.5560   41.4060 C   0  0  0  0  0  0  0  0  0  0  0  0
   45.0460   34.6460   42.6770 N   0  0  0  0  0  0  0  0  0  0  0  0
   45.8260   34.4840   43.7580 C   0  0  0  0  0  0  0  0  0  0  0  0
   47.1250   34.2300   43.6270 N   0  0  0  0  0  0  0  0  0  0  0  0
   49.1080   33.8370   42.3430 C   0  0  0  0  0  0  0  0  0  0  0  0
   49.9080   35.0960   42.5280 C   0  0  0  0  0  0  0  0  0  0  0  0
   47.4830   34.1830   39.9200 C   0  0  0  0  0  0  0  0  0  0  0  0
   44.9074   34.6883   40.5238 H   0  0  0  0  0  0  0  0  0  0  0  0
   45.3858   34.5622   44.7630 H   0  0  0  0  0  0  0  0  0  0  0  0
   49.3777   33.1164   43.1291 H   0  0  0  0  0  0  0  0  0  0  0  0
   49.3300   33.4131   41.3526 H   0  0  0  0  0  0  0  0  0  0  0  0
   50.0347   35.2954   43.6023 H   0  0  0  0  0  0  0  0  0  0  0  0
   50.8954   34.9753   42.0585 H   0  0  0  0  0  0  0  0  0  0  0  0
   49.3793   35.9387   42.0585 H   0  0  0  0  0  0  0  0  0  0  0  0
   48.5629   33.9805   39.9730 H   0  0  0  0  0  0  0  0  0  0  0  0
   46.9821   33.3631   39.3844 H   0  0  0  0  0  0  0  0  0  0  0  0
   47.3131   35.1287   39.3844 H   0  0  0  0  0  0  0  0  0  0  0  0
  1  6  2  0
  2  3  2  0
  2  1  1  0
  3  4  1  0
  4  5  2  0
  6  5  1  0
  7  1  1  0
  7  8  1  0
  9  2  1  0
  3 10  1  0
  5 11  1  0
  7 12  1  0
  7 13  1  0
  8 14  1  0
  8 15  1  0
  8 16  1  0
  9 17  1  0
  9 18  1  0
  9 19  1  0
M  ISO  8  10  14  11  14  12   8  13   8  14   8  15   8  16   8  17   8
M  ISO  2  18   8  19   8
M  END
>  <minimizedAffinity>  (1) 
-3.00000119

>  <minimizedRMSD>  (1) 
1.39562583

$$$$
