
     RDKit          3D

 22 22  0  0  0  0  0  0  0  0999 V2000
   46.6440   34.3110   42.9150 C   0  0  0  0  0  0  0  0  0  0  0  0
   45.4250   34.7700   43.3950 C   0  0  0  0  0  0  0  0  0  0  0  0
   45.0680   34.4190   44.7140 C   0  0  0  0  0  0  0  0  0  0  0  0
   45.9390   33.6600   45.4130 N   0  0  0  0  0  0  0  0  0  0  0  0
   47.1130   33.2300   44.9210 C   0  0  0  0  0  0  0  0  0  0  0  0
   47.4490   33.5630   43.6760 N   0  0  0  0  0  0  0  0  0  0  0  0
   47.0800   34.6370   41.5570 C   0  0  0  0  0  0  0  0  0  0  0  0
   48.4110   35.3460   41.6170 C   0  0  0  0  0  0  0  0  0  0  0  0
   44.6630   35.5420   42.5270 O   0  0  0  0  0  0  0  0  0  0  0  0
   43.2260   35.4640   40.3330 O   0  0  0  0  0  0  0  0  0  0  0  0
   43.2080   35.0960   41.8070 P   0  0  0  0  0  0  0  0  0  0  0  0
   43.0500   33.4060   41.9340 O   0  0  0  0  0  0  0  0  0  0  0  0
   41.8470   35.7840   42.5600 O   0  0  0  0  0  0  0  0  0  0  0  0
   44.1169   34.7508   45.1559 H   0  0  0  0  0  0  0  0  0  0  0  0
   47.7851   32.6135   45.5359 H   0  0  0  0  0  0  0  0  0  0  0  0
   46.3361   35.2917   41.0795 H   0  0  0  0  0  0  0  0  0  0  0  0
   47.1814   33.7119   40.9706 H   0  0  0  0  0  0  0  0  0  0  0  0
   48.6980   35.4989   42.6678 H   0  0  0  0  0  0  0  0  0  0  0  0
   49.1748   34.7352   41.1134 H   0  0  0  0  0  0  0  0  0  0  0  0
   48.3303   36.3206   41.1134 H   0  0  0  0  0  0  0  0  0  0  0  0
   43.0259   33.1477   42.8894 H   0  0  0  0  0  0  0  0  0  0  0  0
   41.9517   35.7311   43.5430 H   0  0  0  0  0  0  0  0  0  0  0  0
  1  2  2  0
  1  6  1  0
  2  3  1  0
  3  4  2  0
  5  4  1  0
  6  5  2  0
  7  8  1  0
  7  1  1  0
  9  2  1  0
 10 11  2  0
 11 12  1  0
 11  9  1  0
 11 13  1  0
  3 14  1  0
  5 15  1  0
  7 16  1  0
  7 17  1  0
  8 18  1  0
  8 19  1  0
  8 20  1  0
 12 21  1  0
 13 22  1  0
M  ISO  8  14  14  15  14  16   8  17   8  18   8  19   8  20   8  21   3
M  ISO  1  22   3
M  END
>  <minimizedAffinity>  (1) 
-4.13991117

>  <minimizedRMSD>  (1) 
3.44103074

$$$$
