
     RDKit          3D

 43 46  0  0  0  0  0  0  0  0999 V2000
   40.6790   34.7570   41.3740 C   0  0  0  0  0  0  0  0  0  0  0  0
   39.8480   35.4480   40.4990 C   0  0  0  0  0  0  0  0  0  0  0  0
   38.7660   34.8420   39.8750 C   0  0  0  0  0  0  0  0  0  0  0  0
   38.5360   33.5190   40.1500 N   0  0  0  0  0  0  0  0  0  0  0  0
   39.3380   32.8720   40.9880 C   0  0  0  0  0  0  0  0  0  0  0  0
   40.3740   33.4550   41.5860 N   0  0  0  0  0  0  0  0  0  0  0  0
   39.0310   31.5020   41.2210 N   0  0  0  0  0  0  0  0  0  0  0  0
   37.7540   31.1010   41.0030 C   0  0  0  0  0  0  0  0  0  0  0  0
   37.6790   29.7680   41.2830 N   0  0  0  0  0  0  0  0  0  0  0  0
   38.8880   29.3470   41.6680 C   0  0  0  0  0  0  0  0  0  0  0  0
   39.4370   28.1330   42.0710 C   0  0  0  0  0  0  0  0  0  0  0  0
   40.7550   28.0680   42.4040 N   0  0  0  0  0  0  0  0  0  0  0  0
   41.5170   29.1910   42.3360 C   0  0  0  0  0  0  0  0  0  0  0  0
   41.0310   30.4040   41.9480 N   0  0  0  0  0  0  0  0  0  0  0  0
   39.7280   30.4370   41.6270 C   0  0  0  0  0  0  0  0  0  0  0  0
   38.5560   27.0090   42.1120 N   0  0  0  0  0  0  0  0  0  0  0  0
   41.7350   35.4530   41.9490 O   0  0  0  0  0  0  0  0  0  0  0  0
   43.7440   35.2030   40.2380 O   0  0  0  0  0  0  0  0  0  0  0  0
   43.3030   34.9010   41.6690 P   0  0  2  0  0  0  0  0  0  0  0  0
   43.2930   33.2190   41.8860 O   0  0  0  0  0  0  0  0  0  0  0  0
   44.4430   35.5430   42.7560 O   0  0  0  0  0  0  0  0  0  0  0  0
   46.4330   34.3700   43.1690 C   0  0  0  0  0  0  0  0  0  0  0  0
   45.2270   34.8360   43.6460 C   0  0  0  0  0  0  0  0  0  0  0  0
   44.8990   34.5560   44.9850 C   0  0  0  0  0  0  0  0  0  0  0  0
   45.7940   33.8470   45.7130 N   0  0  0  0  0  0  0  0  0  0  0  0
   46.9470   33.4110   45.2280 C   0  0  0  0  0  0  0  0  0  0  0  0
   47.2740   33.6710   43.9490 N   0  0  0  0  0  0  0  0  0  0  0  0
   46.8460   34.6220   41.7820 C   0  0  0  0  0  0  0  0  0  0  0  0
   48.1850   35.3010   41.7730 C   0  0  0  0  0  0  0  0  0  0  0  0
   40.0546   36.5089   40.2947 H   0  0  0  0  0  0  0  0  0  0  0  0
   38.1175   35.4026   39.1857 H   0  0  0  0  0  0  0  0  0  0  0  0
   36.9251   31.7381   40.6608 H   0  0  0  0  0  0  0  0  0  0  0  0
   42.5803   29.1175   42.6079 H   0  0  0  0  0  0  0  0  0  0  0  0
   38.9108   26.0869   42.4032 H   0  0  0  0  0  0  0  0  0  0  0  0
   37.5661   27.1207   41.8503 H   0  0  0  0  0  0  0  0  0  0  0  0
   43.2918   33.0111   42.8539 H   0  0  0  0  0  0  0  0  0  0  0  0
   43.9510   34.9001   45.4242 H   0  0  0  0  0  0  0  0  0  0  0  0
   47.6344   32.8387   45.8683 H   0  0  0  0  0  0  0  0  0  0  0  0
   46.9159   33.6667   41.2411 H   0  0  0  0  0  0  0  0  0  0  0  0
   46.1041   35.2687   41.2907 H   0  0  0  0  0  0  0  0  0  0  0  0
   48.5176   35.4696   42.8079 H   0  0  0  0  0  0  0  0  0  0  0  0
   48.9154   34.6644   41.2523 H   0  0  0  0  0  0  0  0  0  0  0  0
   48.1030   36.2665   41.2523 H   0  0  0  0  0  0  0  0  0  0  0  0
  1  6  1  0
  1 17  1  0
  2  1  2  0
  3  4  2  0
  3  2  1  0
  4  5  1  0
  5  7  1  0
  5  6  2  0
  7 15  1  0
  8  7  1  0
  8  9  2  0
  9 10  1  0
 10 11  2  0
 11 16  1  0
 11 12  1  0
 13 12  2  0
 14 13  1  0
 15 10  1  0
 15 14  2  0
 19 18  2  0
 19 20  1  0
 19 17  1  0
 19 21  1  0
 21 23  1  0
 22 23  2  0
 22 27  1  0
 23 24  1  0
 24 25  2  0
 26 25  1  0
 27 26  2  0
 28 22  1  0
 29 28  1  0
  2 30  1  0
  3 31  1  0
  8 32  1  0
 13 33  1  0
 16 34  1  0
 16 35  1  0
 20 36  1  0
 24 37  1  0
 26 38  1  0
 28 39  1  0
 28 40  1  0
 29 41  1  0
 29 42  1  0
 29 43  1  0
M  ISO  8  30  14  31  14  32  14  33  14  36   3  37  14  38  14  39   8
M  ISO  4  40   8  41   8  42   8  43   8
M  END
>  <minimizedAffinity>  (1) 
-6.48963881

>  <minimizedRMSD>  (1) 
0.842707753

$$$$
