
     RDKit          3D

 45 48  0  0  0  0  0  0  0  0999 V2000
   41.8450   35.3540   41.8510 O   0  0  0  0  0  0  0  0  0  0  0  0
   40.7570   34.7310   41.2660 C   0  0  0  0  0  0  0  0  0  0  0  0
   39.9520   35.4770   40.4240 C   0  0  0  0  0  0  0  0  0  0  0  0
   38.8410   34.9410   39.7940 C   0  0  0  0  0  0  0  0  0  0  0  0
   38.5510   33.6370   40.0230 N   0  0  0  0  0  0  0  0  0  0  0  0
   39.3290   32.9100   40.8380 C   0  0  0  0  0  0  0  0  0  0  0  0
   40.3870   33.4550   41.4280 N   0  0  0  0  0  0  0  0  0  0  0  0
   38.9910   31.5100   41.0660 C   0  0  0  0  0  0  0  0  0  0  0  0
   39.6590   30.7580   42.0150 C   0  0  0  0  0  0  0  0  0  0  0  0
   39.3670   29.4120   42.2640 C   0  0  0  0  0  0  0  0  0  0  0  0
   38.3610   28.8400   41.5140 C   0  0  0  0  0  0  0  0  0  0  0  0
   37.9900   27.5350   41.6700 N   0  0  0  0  0  0  0  0  0  0  0  0
   36.9870   27.0320   40.8940 C   0  0  0  0  0  0  0  0  0  0  0  0
   36.2960   27.7460   39.9370 C   0  0  0  0  0  0  0  0  0  0  0  0
   36.6550   29.0880   39.7550 C   0  0  0  0  0  0  0  0  0  0  0  0
   37.6730   29.5580   40.5580 C   0  0  0  0  0  0  0  0  0  0  0  0
   37.9900   30.8980   40.3350 C   0  0  0  0  0  0  0  0  0  0  0  0
   43.8250   34.8260   40.1850 O   0  0  0  0  0  0  0  0  0  0  0  0
   43.3760   34.6830   41.6270 P   0  0  2  0  0  0  0  0  0  0  0  0
   43.2690   33.0350   41.9870 O   0  0  0  0  0  0  0  0  0  0  0  0
   44.5460   35.3600   42.6590 O   0  0  0  0  0  0  0  0  0  0  0  0
   46.6120   34.3060   43.0460 C   0  0  0  0  0  0  0  0  0  0  0  0
   45.3800   34.6680   43.5300 C   0  0  0  0  0  0  0  0  0  0  0  0
   45.0600   34.3150   44.8530 C   0  0  0  0  0  0  0  0  0  0  0  0
   45.9930   33.6420   45.5590 N   0  0  0  0  0  0  0  0  0  0  0  0
   47.1860   33.3030   45.0630 C   0  0  0  0  0  0  0  0  0  0  0  0
   47.4890   33.6360   43.8090 N   0  0  0  0  0  0  0  0  0  0  0  0
   47.0110   34.6440   41.6700 C   0  0  0  0  0  0  0  0  0  0  0  0
   48.3390   35.3420   41.7040 C   0  0  0  0  0  0  0  0  0  0  0  0
   40.2031   36.5335   40.2485 H   0  0  0  0  0  0  0  0  0  0  0  0
   38.2143   35.5538   39.1293 H   0  0  0  0  0  0  0  0  0  0  0  0
   40.4559   31.2395   42.6007 H   0  0  0  0  0  0  0  0  0  0  0  0
   39.9155   28.8361   43.0240 H   0  0  0  0  0  0  0  0  0  0  0  0
   36.7084   25.9783   41.0425 H   0  0  0  0  0  0  0  0  0  0  0  0
   35.4964   27.2810   39.3416 H   0  0  0  0  0  0  0  0  0  0  0  0
   36.1541   29.7293   39.0148 H   0  0  0  0  0  0  0  0  0  0  0  0
   37.4405   31.4707   39.5734 H   0  0  0  0  0  0  0  0  0  0  0  0
   43.2610   32.9116   42.9693 H   0  0  0  0  0  0  0  0  0  0  0  0
   44.0875   34.5770   45.2952 H   0  0  0  0  0  0  0  0  0  0  0  0
   47.9105   32.7548   45.6832 H   0  0  0  0  0  0  0  0  0  0  0  0
   46.2574   35.3068   41.2197 H   0  0  0  0  0  0  0  0  0  0  0  0
   47.0890   33.7257   41.0694 H   0  0  0  0  0  0  0  0  0  0  0  0
   48.6427   35.5016   42.7491 H   0  0  0  0  0  0  0  0  0  0  0  0
   49.0917   34.7230   41.1939 H   0  0  0  0  0  0  0  0  0  0  0  0
   48.2560   36.3130   41.1939 H   0  0  0  0  0  0  0  0  0  0  0  0
  2  7  1  0
  2  1  1  0
  3  2  2  0
  4  5  2  0
  4  3  1  0
  5  6  1  0
  6  8  1  0
  6  7  2  0
  8  9  2  0
  9 10  1  0
 11 12  1  0
 11 10  2  0
 13 12  2  0
 14 13  1  0
 15 14  2  0
 15 16  1  0
 16 11  1  0
 17 16  2  0
 17  8  1  0
 19 18  2  0
 19  1  1  0
 19 20  1  0
 19 21  1  0
 21 23  1  0
 22 23  2  0
 22 27  1  0
 23 24  1  0
 24 25  2  0
 26 25  1  0
 27 26  2  0
 28 29  1  0
 28 22  1  0
  3 30  1  0
  4 31  1  0
  9 32  1  0
 10 33  1  0
 13 34  1  0
 14 35  1  0
 15 36  1  0
 17 37  1  0
 20 38  1  0
 24 39  1  0
 26 40  1  0
 28 41  1  0
 28 42  1  0
 29 43  1  0
 29 44  1  0
 29 45  1  0
M  ISO  8  30  14  31  14  32  14  33  14  34  14  35  14  36  14  37  14
M  ISO  8  38   3  39  14  40  14  41   8  42   8  43   8  44   8  45   8
M  END
>  <minimizedAffinity>  (1) 
-6.34831047

>  <minimizedRMSD>  (1) 
0.818242908

$$$$
