
     RDKit          3D

 44 46  0  0  0  0  0  0  0  0999 V2000
   43.8040   34.8280   40.1170 O   0  0  0  0  0  0  0  0  0  0  0  0
   43.3200   34.7130   41.5690 P   0  0  1  0  0  0  0  0  0  0  0  0
   43.2030   33.0580   41.9480 O   0  0  0  0  0  0  0  0  0  0  0  0
   44.4650   35.4050   42.6020 O   0  0  0  0  0  0  0  0  0  0  0  0
   46.5310   34.3570   43.0280 C   0  0  0  0  0  0  0  0  0  0  0  0
   45.2880   34.7320   43.4920 C   0  0  0  0  0  0  0  0  0  0  0  0
   44.9550   34.4070   44.8190 C   0  0  0  0  0  0  0  0  0  0  0  0
   45.8790   33.7480   45.5480 N   0  0  0  0  0  0  0  0  0  0  0  0
   47.0750   33.3940   45.0820 C   0  0  0  0  0  0  0  0  0  0  0  0
   47.4000   33.6990   43.8240 N   0  0  0  0  0  0  0  0  0  0  0  0
   46.9480   34.6630   41.6580 C   0  0  0  0  0  0  0  0  0  0  0  0
   48.2900   35.3390   41.6890 C   0  0  0  0  0  0  0  0  0  0  0  0
   41.7840   35.3750   41.7240 O   0  0  0  0  0  0  0  0  0  0  0  0
   40.6910   34.6590   41.2540 C   0  0  0  0  0  0  0  0  0  0  0  0
   39.8570   35.3070   40.3350 C   0  0  0  0  0  0  0  0  0  0  0  0
   38.7440   34.6800   39.8090 C   0  0  0  0  0  0  0  0  0  0  0  0
   38.4780   33.4070   40.2090 N   0  0  0  0  0  0  0  0  0  0  0  0
   39.2780   32.8000   41.0810 C   0  0  0  0  0  0  0  0  0  0  0  0
   40.3490   33.3910   41.5940 N   0  0  0  0  0  0  0  0  0  0  0  0
   38.9330   31.4680   41.4510 N   0  0  0  0  0  0  0  0  0  0  0  0
   37.6160   30.9310   41.1610 C   0  0  0  0  0  0  0  0  0  0  0  0
   37.8240   29.8180   40.1640 C   0  0  0  0  0  0  0  0  0  0  0  0
   39.1480   29.3050   40.1040 N   0  0  0  0  0  0  0  0  0  0  0  0
   39.9180   29.3140   41.2930 C   0  0  0  0  0  0  0  0  0  0  0  0
   39.8350   30.5560   42.1300 C   0  0  0  0  0  0  0  0  0  0  0  0
   43.1950   32.9444   42.9314 H   0  0  0  0  0  0  0  0  0  0  0  0
   43.9786   34.6797   45.2461 H   0  0  0  0  0  0  0  0  0  0  0  0
   47.7866   32.8566   45.7261 H   0  0  0  0  0  0  0  0  0  0  0  0
   46.2103   35.3311   41.1895 H   0  0  0  0  0  0  0  0  0  0  0  0
   47.0166   33.7321   41.0760 H   0  0  0  0  0  0  0  0  0  0  0  0
   48.5983   35.4943   42.7334 H   0  0  0  0  0  0  0  0  0  0  0  0
   49.0310   34.7066   41.1781 H   0  0  0  0  0  0  0  0  0  0  0  0
   48.2229   36.3109   41.1781 H   0  0  0  0  0  0  0  0  0  0  0  0
   40.0926   36.3359   40.0256 H   0  0  0  0  0  0  0  0  0  0  0  0
   38.0920   35.1948   39.0880 H   0  0  0  0  0  0  0  0  0  0  0  0
   37.1537   30.5389   42.0789 H   0  0  0  0  0  0  0  0  0  0  0  0
   36.9466   31.7068   40.7610 H   0  0  0  0  0  0  0  0  0  0  0  0
   37.1493   28.9910   40.4302 H   0  0  0  0  0  0  0  0  0  0  0  0
   37.6164   30.2496   39.1737 H   0  0  0  0  0  0  0  0  0  0  0  0
   39.0837   28.3268   39.7879 H   0  0  0  0  0  0  0  0  0  0  0  0
   39.5857   28.4689   41.9137 H   0  0  0  0  0  0  0  0  0  0  0  0
   40.9658   29.2520   40.9639 H   0  0  0  0  0  0  0  0  0  0  0  0
   40.8309   31.0128   42.2273 H   0  0  0  0  0  0  0  0  0  0  0  0
   39.4692   30.3234   43.1410 H   0  0  0  0  0  0  0  0  0  0  0  0
  2  1  2  0
  2 13  1  0
  2  3  1  0
  2  4  1  0
  4  6  1  0
  5  6  2  0
  5 10  1  0
  6  7  1  0
  7  8  2  0
  9  8  1  0
 10  9  2  0
 11 12  1  0
 11  5  1  0
 14 19  1  0
 14 13  1  0
 15 14  2  0
 16 17  2  0
 16 15  1  0
 17 18  1  0
 18 20  1  0
 18 19  2  0
 20 25  1  0
 21 20  1  0
 22 21  1  0
 23 22  1  0
 23 24  1  0
 24 25  1  0
  3 26  1  0
  7 27  1  0
  9 28  1  0
 11 29  1  0
 11 30  1  0
 12 31  1  0
 12 32  1  0
 12 33  1  0
 15 34  1  0
 16 35  1  0
 21 36  1  0
 21 37  1  0
 22 38  1  0
 22 39  1  0
 23 40  1  0
 24 41  1  0
 24 42  1  0
 25 43  1  0
 25 44  1  0
M  ISO  8  26   3  27  14  28  14  29   8  30   8  31   8  32   8  33   8
M  ISO  8  34  14  35  14  36  13  37  13  38  13  39  13  40   5  41  13
M  ISO  3  42  13  43  13  44  13
M  END
>  <minimizedAffinity>  (1) 
-5.89708376

>  <minimizedRMSD>  (1) 
0.391744763

$$$$
