
     RDKit          3D

 31 32  0  0  0  0  0  0  0  0999 V2000
   44.4490   35.3730   42.6110 O   0  0  0  0  0  0  0  0  0  0  0  0
   46.5270   34.3480   43.0240 C   0  0  0  0  0  0  0  0  0  0  0  0
   45.2780   34.7100   43.4920 C   0  0  0  0  0  0  0  0  0  0  0  0
   44.9610   34.3730   44.8260 C   0  0  0  0  0  0  0  0  0  0  0  0
   45.9000   33.7210   45.5470 N   0  0  0  0  0  0  0  0  0  0  0  0
   47.0970   33.3890   45.0550 C   0  0  0  0  0  0  0  0  0  0  0  0
   47.4030   33.7040   43.7970 N   0  0  0  0  0  0  0  0  0  0  0  0
   46.9200   34.6670   41.6520 C   0  0  0  0  0  0  0  0  0  0  0  0
   48.2690   35.3250   41.6570 C   0  0  0  0  0  0  0  0  0  0  0  0
   43.7010   34.8050   40.1490 O   0  0  0  0  0  0  0  0  0  0  0  0
   43.2690   34.6710   41.6160 P   0  0  1  0  0  0  0  0  0  0  0  0
   43.2000   33.0180   41.9780 O   0  0  0  0  0  0  0  0  0  0  0  0
   41.7290   35.3140   41.8480 O   0  0  0  0  0  0  0  0  0  0  0  0
   40.6500   34.6830   41.2500 C   0  0  0  0  0  0  0  0  0  0  0  0
   39.9290   35.3780   40.2920 C   0  0  0  0  0  0  0  0  0  0  0  0
   38.8360   34.8290   39.6430 C   0  0  0  0  0  0  0  0  0  0  0  0
   38.4700   33.5590   39.9700 N   0  0  0  0  0  0  0  0  0  0  0  0
   39.1650   32.8900   40.8950 C   0  0  0  0  0  0  0  0  0  0  0  0
   40.2260   33.4280   41.5220 N   0  0  0  0  0  0  0  0  0  0  0  0
   38.7830   31.2280   41.4060 S   0  0  0  0  0  0  0  0  0  0  0  0
   43.9851   34.6317   45.2627 H   0  0  0  0  0  0  0  0  0  0  0  0
   47.8260   32.8584   45.6851 H   0  0  0  0  0  0  0  0  0  0  0  0
   46.1807   35.3501   41.2084 H   0  0  0  0  0  0  0  0  0  0  0  0
   46.9663   33.7413   41.0597 H   0  0  0  0  0  0  0  0  0  0  0  0
   48.5954   35.4842   42.6953 H   0  0  0  0  0  0  0  0  0  0  0  0
   48.9939   34.6793   41.1397 H   0  0  0  0  0  0  0  0  0  0  0  0
   48.2064   36.2937   41.1397 H   0  0  0  0  0  0  0  0  0  0  0  0
   43.1949   32.8952   42.9603 H   0  0  0  0  0  0  0  0  0  0  0  0
   40.2362   36.4032   40.0379 H   0  0  0  0  0  0  0  0  0  0  0  0
   38.2801   35.4017   38.8860 H   0  0  0  0  0  0  0  0  0  0  0  0
   38.7681   31.1630   42.7744 H   0  0  0  0  0  0  0  0  0  0  0  0
  1  3  1  0
  2  3  2  0
  2  7  1  0
  3  4  1  0
  4  5  2  0
  6  5  1  0
  7  6  2  0
  8  9  1  0
  8  2  1  0
 11 10  2  0
 11 13  1  0
 11 12  1  0
 11  1  1  0
 14 19  1  0
 14 13  1  0
 15 14  2  0
 16 17  2  0
 16 15  1  0
 17 18  1  0
 18 20  1  0
 18 19  2  0
  4 21  1  0
  6 22  1  0
  8 23  1  0
  8 24  1  0
  9 25  1  0
  9 26  1  0
  9 27  1  0
 12 28  1  0
 15 29  1  0
 16 30  1  0
 20 31  1  0
M  ISO  8  21  14  22  14  23   8  24   8  25   8  26   8  27   8  28   3
M  ISO  3  29  14  30  14  31  11
M  END
>  <minimizedAffinity>  (1) 
-4.99983168

>  <minimizedRMSD>  (1) 
0.198557273

$$$$
