
     RDKit          3D

 17 18  0  0  0  0  0  0  0  0999 V2000
   44.6170   35.9540   44.3610 C   0  0  0  0  0  0  0  0  0  0  0  0
   45.3500   35.9180   43.1510 C   0  0  0  0  0  0  0  0  0  0  0  0
   46.2750   34.8820   42.9940 C   0  0  0  0  0  0  0  0  0  0  0  0
   46.4190   33.9760   44.0010 N   0  0  0  0  0  0  0  0  0  0  0  0
   45.7030   34.0370   45.1470 C   0  0  0  0  0  0  0  0  0  0  0  0
   44.8040   35.0320   45.3160 N   0  0  0  0  0  0  0  0  0  0  0  0
   47.0970   34.7570   41.7540 C   0  0  0  0  0  0  0  0  0  0  0  0
   48.3960   35.5010   41.7940 C   0  0  0  0  0  0  0  0  0  0  0  0
   48.3360   33.9570   41.8400 C   0  0  0  0  0  0  0  0  0  0  0  0
   43.8794   36.7542   44.5210 H   0  0  0  0  0  0  0  0  0  0  0  0
   45.1981   36.6740   42.3666 H   0  0  0  0  0  0  0  0  0  0  0  0
   45.8511   33.2834   45.9345 H   0  0  0  0  0  0  0  0  0  0  0  0
   46.2351   34.7279   41.0711 H   0  0  0  0  0  0  0  0  0  0  0  0
   48.7690   36.0157   40.8963 H   0  0  0  0  0  0  0  0  0  0  0  0
   48.8329   36.2927   42.4204 H   0  0  0  0  0  0  0  0  0  0  0  0
   48.5844   33.4225   42.7688 H   0  0  0  0  0  0  0  0  0  0  0  0
   48.7810   33.1396   41.2536 H   0  0  0  0  0  0  0  0  0  0  0  0
  1  6  2  0
  2  1  1  0
  3  2  2  0
  3  4  1  0
  4  5  2  0
  5  6  1  0
  7  8  1  0
  7  9  1  0
  7  3  1  0
  8  9  1  0
  1 10  1  0
  2 11  1  0
  5 12  1  0
  7 13  1  0
  8 14  1  0
  8 15  1  0
  9 16  1  0
  9 17  1  0
M  ISO  8  10  14  11  14  12  14  13  13  14  13  15  13  16  13  17  13
M  END
>  <minimizedAffinity>  (1) 
-3.695714

>  <minimizedRMSD>  (1) 
0.581026137

$$$$
