
     RDKit          3D

 27 29  0  0  1  0  0  0  0  0999 V2000
   47.0690   35.0220   41.6190 C   0  0  1  0  0  0  0  0  0  0  0  0
   48.5060   35.4620   41.8100 C   0  0  0  0  0  0  0  0  0  0  0  0
   48.1170   34.0200   41.4490 C   0  0  2  0  0  0  0  0  0  0  0  0
   49.6960   31.4640   41.2200 Cl  0  0  0  0  0  0  0  0  0  0  0  0
   49.0910   32.4040   39.8870 C   0  0  0  0  0  0  0  0  0  0  0  0
   48.3730   33.5690   40.0590 C   0  0  0  0  0  0  0  0  0  0  0  0
   47.9410   34.2370   38.9310 C   0  0  0  0  0  0  0  0  0  0  0  0
   48.1930   33.7950   37.6500 C   0  0  0  0  0  0  0  0  0  0  0  0
   48.9060   32.6380   37.4710 C   0  0  0  0  0  0  0  0  0  0  0  0
   49.2600   32.0250   35.8840 Cl  0  0  0  0  0  0  0  0  0  0  0  0
   49.3530   31.9470   38.5950 C   0  0  0  0  0  0  0  0  0  0  0  0
   44.6070   35.8370   44.3620 C   0  0  0  0  0  0  0  0  0  0  0  0
   45.3040   35.9490   43.1430 C   0  0  0  0  0  0  0  0  0  0  0  0
   46.2890   35.0010   42.9040 C   0  0  0  0  0  0  0  0  0  0  0  0
   46.5360   34.0200   43.8360 N   0  0  0  0  0  0  0  0  0  0  0  0
   45.8440   33.9460   44.9950 C   0  0  0  0  0  0  0  0  0  0  0  0
   44.8890   34.8570   45.2400 N   0  0  0  0  0  0  0  0  0  0  0  0
   46.2241   35.3238   40.9826 H   0  0  0  0  0  0  0  0  0  0  0  0
   48.9941   36.1105   41.0675 H   0  0  0  0  0  0  0  0  0  0  0  0
   49.0874   35.9524   42.6046 H   0  0  0  0  0  0  0  0  0  0  0  0
   48.3350   33.0343   41.8859 H   0  0  0  0  0  0  0  0  0  0  0  0
   47.3680   35.1670   39.0606 H   0  0  0  0  0  0  0  0  0  0  0  0
   47.8266   34.3634   36.7824 H   0  0  0  0  0  0  0  0  0  0  0  0
   49.9267   31.0181   38.4606 H   0  0  0  0  0  0  0  0  0  0  0  0
   43.8172   36.5645   44.6007 H   0  0  0  0  0  0  0  0  0  0  0  0
   45.0794   36.7458   42.4187 H   0  0  0  0  0  0  0  0  0  0  0  0
   46.0600   33.1523   45.7253 H   0  0  0  0  0  0  0  0  0  0  0  0
  1  2  1  0
  1 14  1  0
  3  1  1  0
  3  2  1  0
  5  6  2  0
  5  4  1  0
  6  3  1  0
  7  6  1  0
  8  7  2  0
  9  8  1  0
  9 11  2  0
 10  9  1  0
 11  5  1  0
 12 17  2  0
 13 12  1  0
 14 13  2  0
 14 15  1  0
 15 16  2  0
 16 17  1  0
  1 18  1  6
  2 19  1  0
  2 20  1  0
  3 21  1  1
  7 22  1  0
  8 23  1  0
 11 24  1  0
 12 25  1  0
 13 26  1  0
 16 27  1  0
M  ISO  8  18  13  19  13  20  13  21  13  22  14  23  14  24  14  25  14
M  ISO  2  26  14  27  14
M  END
>  <minimizedAffinity>  (1) 
-5.14864588

>  <minimizedRMSD>  (1) 
0.87168926

$$$$
