
     RDKit          3D

 21 22  0  0  1  0  0  0  0  0999 V2000
   47.8810   34.8750   41.5110 C   0  0  1  0  0  0  0  0  0  0  0  0
   48.8350   36.0450   41.6360 C   0  0  0  0  0  0  0  0  0  0  0  0
   49.2970   34.5670   41.6010 C   0  0  1  0  0  0  0  0  0  0  0  0
   45.1530   35.2290   44.0960 C   0  0  0  0  0  0  0  0  0  0  0  0
   45.9250   35.5120   42.9290 C   0  0  0  0  0  0  0  0  0  0  0  0
   47.0210   34.6910   42.7130 C   0  0  0  0  0  0  0  0  0  0  0  0
   47.3040   33.6950   43.5820 N   0  0  0  0  0  0  0  0  0  0  0  0
   46.5550   33.4400   44.6900 C   0  0  0  0  0  0  0  0  0  0  0  0
   45.4790   34.2190   44.9320 N   0  0  0  0  0  0  0  0  0  0  0  0
   50.9380   33.1090   42.6860 C   0  0  0  0  0  0  0  0  0  0  0  0
   51.1660   32.5170   41.5990 O   0  0  0  0  0  0  0  0  0  0  0  0
   49.9840   34.1880   42.7830 N   0  0  0  0  0  0  0  0  0  0  0  0
   47.1105   34.5476   40.7975 H   0  0  0  0  0  0  0  0  0  0  0  0
   49.0205   36.7094   40.7792 H   0  0  0  0  0  0  0  0  0  0  0  0
   48.9596   36.9036   42.3122 H   0  0  0  0  0  0  0  0  0  0  0  0
   49.9017   33.8781   40.9929 H   0  0  0  0  0  0  0  0  0  0  0  0
   44.2717   35.8480   44.3199 H   0  0  0  0  0  0  0  0  0  0  0  0
   45.6659   36.3318   42.2428 H   0  0  0  0  0  0  0  0  0  0  0  0
   46.8202   32.6187   45.3720 H   0  0  0  0  0  0  0  0  0  0  0  0
   51.4819   32.7948   43.5890 H   0  0  0  0  0  0  0  0  0  0  0  0
   49.8083   34.6657   43.6784 H   0  0  0  0  0  0  0  0  0  0  0  0
  1  3  1  0
  1  2  1  0
  1  6  1  0
  3  2  1  0
  3 12  1  0
  4  9  2  0
  5  4  1  0
  6  5  2  0
  6  7  1  0
  7  8  2  0
  8  9  1  0
 10 12  1  0
 11 10  2  0
  1 13  1  6
  2 14  1  0
  2 15  1  0
  3 16  1  6
  4 17  1  0
  5 18  1  0
  8 19  1  0
 10 20  1  0
 12 21  1  0
M  ISO  8  13  13  14  13  15  13  16  13  17  14  18  14  19  14  20   6
M  END
>  <minimizedAffinity>  (1) 
-4.01251411

>  <minimizedRMSD>  (1) 
1.70045662

$$$$
