
     RDKit          3D

 39 42  0  0  1  0  0  0  0  0999 V2000
   47.8520   34.1660   40.0930 O   0  0  0  0  0  0  0  0  0  0  0  0
   48.2040   35.5910   42.0090 C   0  0  1  0  0  0  0  0  0  0  0  0
   49.4740   34.8320   41.8940 C   0  0  0  0  0  0  0  0  0  0  0  0
   48.6010   35.1120   40.6780 C   0  0  1  0  0  0  0  0  0  0  0  0
   46.2970   33.0850   44.1060 C   0  0  0  0  0  0  0  0  0  0  0  0
   47.3720   33.7450   43.5080 C   0  0  0  0  0  0  0  0  0  0  0  0
   47.0940   34.8440   42.6850 C   0  0  0  0  0  0  0  0  0  0  0  0
   45.7990   35.2250   42.4980 N   0  0  0  0  0  0  0  0  0  0  0  0
   44.7720   34.5680   43.0900 C   0  0  0  0  0  0  0  0  0  0  0  0
   45.0300   33.4990   43.8920 N   0  0  0  0  0  0  0  0  0  0  0  0
   48.8980   32.4540   38.3580 O   0  0  0  0  0  0  0  0  0  0  0  0
   48.1520   33.7580   38.5310 P   0  0  2  0  0  0  0  0  0  0  0  0
   49.0260   34.9210   37.6700 O   0  0  0  0  0  0  0  0  0  0  0  0
   46.6890   33.5400   37.7150 O   0  0  0  0  0  0  0  0  0  0  0  0
   46.5610   32.7660   36.5710 C   0  0  0  0  0  0  0  0  0  0  0  0
   47.5130   32.6370   35.5870 C   0  0  0  0  0  0  0  0  0  0  0  0
   47.2650   31.8300   34.4870 C   0  0  0  0  0  0  0  0  0  0  0  0
   46.0600   31.1570   34.3850 C   0  0  0  0  0  0  0  0  0  0  0  0
   45.1080   31.2920   35.3810 C   0  0  0  0  0  0  0  0  0  0  0  0
   43.9240   30.5920   35.2200 C   0  0  0  0  0  0  0  0  0  0  0  0
   42.9400   30.7060   36.2050 C   0  0  0  0  0  0  0  0  0  0  0  0
   43.1570   31.5060   37.3170 C   0  0  0  0  0  0  0  0  0  0  0  0
   44.3500   32.1970   37.4600 C   0  0  0  0  0  0  0  0  0  0  0  0
   45.3410   32.0950   36.4840 C   0  0  0  0  0  0  0  0  0  0  0  0
   47.9191   36.5780   42.4024 H   0  0  0  0  0  0  0  0  0  0  0  0
   50.4393   35.3457   42.0133 H   0  0  0  0  0  0  0  0  0  0  0  0
   49.8997   33.9347   42.3669 H   0  0  0  0  0  0  0  0  0  0  0  0
   48.8002   35.5512   39.6893 H   0  0  0  0  0  0  0  0  0  0  0  0
   46.4842   32.2191   44.7580 H   0  0  0  0  0  0  0  0  0  0  0  0
   48.4065   33.4120   43.6780 H   0  0  0  0  0  0  0  0  0  0  0  0
   43.7357   34.8969   42.9232 H   0  0  0  0  0  0  0  0  0  0  0  0
   49.4822   35.5281   38.3052 H   0  0  0  0  0  0  0  0  0  0  0  0
   48.4697   33.1731   35.6724 H   0  0  0  0  0  0  0  0  0  0  0  0
   48.0239   31.7250   33.6977 H   0  0  0  0  0  0  0  0  0  0  0  0
   45.8590   30.5159   33.5140 H   0  0  0  0  0  0  0  0  0  0  0  0
   43.7617   29.9594   34.3349 H   0  0  0  0  0  0  0  0  0  0  0  0
   41.9910   30.1601   36.0984 H   0  0  0  0  0  0  0  0  0  0  0  0
   42.3785   31.5925   38.0893 H   0  0  0  0  0  0  0  0  0  0  0  0
   44.5156   32.8277   38.3459 H   0  0  0  0  0  0  0  0  0  0  0  0
  1  4  1  0
  2  7  1  0
  3  2  1  0
  4  3  1  0
  4  2  1  0
  6  5  2  0
  7  6  1  0
  8  7  2  0
  8  9  1  0
  9 10  2  0
 10  5  1  0
 12 11  2  0
 12  1  1  0
 13 12  1  0
 14 12  1  0
 15 14  1  0
 16 15  2  0
 17 16  1  0
 18 17  2  0
 18 19  1  0
 19 24  2  0
 20 19  1  0
 20 21  2  0
 21 22  1  0
 22 23  2  0
 24 15  1  0
 24 23  1  0
  2 25  1  6
  3 26  1  0
  3 27  1  0
  4 28  1  6
  5 29  1  0
  6 30  1  0
  9 31  1  0
 13 32  1  0
 16 33  1  0
 17 34  1  0
 18 35  1  0
 20 36  1  0
 21 37  1  0
 22 38  1  0
 23 39  1  0
M  ISO  8  25  13  26  13  27  13  28  13  29  14  30  14  31  14  32   3
M  ISO  7  33  14  34  14  35  14  36  14  37  14  38  14  39  14
M  END
>  <minimizedAffinity>  (1) 
-5.10521841

>  <minimizedRMSD>  (1) 
1.00441146

$$$$
