
     RDKit          3D

 27 28  0  0  1  0  0  0  0  0999 V2000
   48.0760   35.5170   41.9120 C   0  0  1  0  0  0  0  0  0  0  0  0
   49.3350   34.7360   41.8200 C   0  0  0  0  0  0  0  0  0  0  0  0
   48.5210   35.0970   40.5850 C   0  0  1  0  0  0  0  0  0  0  0  0
   46.0260   33.0530   43.9170 C   0  0  0  0  0  0  0  0  0  0  0  0
   47.1400   33.7160   43.4010 C   0  0  0  0  0  0  0  0  0  0  0  0
   46.9250   34.7710   42.5040 C   0  0  0  0  0  0  0  0  0  0  0  0
   45.6460   35.1050   42.1750 N   0  0  0  0  0  0  0  0  0  0  0  0
   44.5810   34.4440   42.6900 C   0  0  0  0  0  0  0  0  0  0  0  0
   44.7840   33.4170   43.5630 N   0  0  0  0  0  0  0  0  0  0  0  0
   47.7790   34.1900   39.9210 O   0  0  0  0  0  0  0  0  0  0  0  0
   48.9800   32.4770   38.2930 O   0  0  0  0  0  0  0  0  0  0  0  0
   48.2050   33.7710   38.3970 P   0  0  2  0  0  0  0  0  0  0  0  0
   49.1320   34.9350   37.5880 O   0  0  0  0  0  0  0  0  0  0  0  0
   46.8130   33.5490   37.4610 O   0  0  0  0  0  0  0  0  0  0  0  0
   45.6360   33.0010   37.8920 C   0  0  0  0  0  0  0  0  0  0  0  0
   45.7680   31.9640   38.5910 O   0  0  0  0  0  0  0  0  0  0  0  0
   44.4880   33.7490   37.4400 N   0  0  0  0  0  0  0  0  0  0  0  0
   47.7925   36.4909   42.3376 H   0  0  0  0  0  0  0  0  0  0  0  0
   50.3042   35.2213   42.0074 H   0  0  0  0  0  0  0  0  0  0  0  0
   49.7216   33.8078   42.2661 H   0  0  0  0  0  0  0  0  0  0  0  0
   48.7708   35.5823   39.6300 H   0  0  0  0  0  0  0  0  0  0  0  0
   46.1677   32.2214   44.6229 H   0  0  0  0  0  0  0  0  0  0  0  0
   48.1588   33.4188   43.6903 H   0  0  0  0  0  0  0  0  0  0  0  0
   43.5589   34.7344   42.4053 H   0  0  0  0  0  0  0  0  0  0  0  0
   49.5903   35.5105   38.2504 H   0  0  0  0  0  0  0  0  0  0  0  0
   43.5391   33.4411   37.6964 H   0  0  0  0  0  0  0  0  0  0  0  0
   44.6173   34.5909   36.8609 H   0  0  0  0  0  0  0  0  0  0  0  0
  1  6  1  0
  2  1  1  0
  3  2  1  0
  3  1  1  0
  5  4  2  0
  6  5  1  0
  7  6  2  0
  7  8  1  0
  8  9  2  0
  9  4  1  0
 10  3  1  0
 12 11  2  0
 12 10  1  0
 13 12  1  0
 14 15  1  0
 14 12  1  0
 15 16  2  0
 17 15  1  0
  1 18  1  6
  2 19  1  0
  2 20  1  0
  3 21  1  6
  4 22  1  0
  5 23  1  0
  8 24  1  0
 13 25  1  0
 17 26  1  0
 17 27  1  0
M  ISO  8  18  13  19  13  20  13  21  13  22  14  23  14  24  14  25   3
M  END
>  <minimizedAffinity>  (1) 
-4.34635448

>  <minimizedRMSD>  (1) 
0.467183948

$$$$
