
     RDKit          3D

 26 27  0  0  1  0  0  0  0  0999 V2000
   48.1950   35.6170   42.0340 C   0  0  1  0  0  0  0  0  0  0  0  0
   49.4900   34.9070   41.9680 C   0  0  0  0  0  0  0  0  0  0  0  0
   48.6310   35.1200   40.7280 C   0  0  1  0  0  0  0  0  0  0  0  0
   46.3140   33.0520   44.0810 C   0  0  0  0  0  0  0  0  0  0  0  0
   47.3860   33.7240   43.4780 C   0  0  0  0  0  0  0  0  0  0  0  0
   47.0990   34.8610   42.7100 C   0  0  0  0  0  0  0  0  0  0  0  0
   45.8020   35.2610   42.5850 N   0  0  0  0  0  0  0  0  0  0  0  0
   44.7840   34.5930   43.1790 C   0  0  0  0  0  0  0  0  0  0  0  0
   45.0480   33.4960   43.9210 N   0  0  0  0  0  0  0  0  0  0  0  0
   47.9300   34.1240   40.1610 O   0  0  0  0  0  0  0  0  0  0  0  0
   48.9610   32.5010   38.3310 O   0  0  0  0  0  0  0  0  0  0  0  0
   48.1750   33.7690   38.5800 P   0  0  2  0  0  0  0  0  0  0  0  0
   48.9600   34.9870   37.7120 O   0  0  0  0  0  0  0  0  0  0  0  0
   46.6820   33.5170   37.8320 O   0  0  0  0  0  0  0  0  0  0  0  0
   45.7980   32.9530   38.7640 C   0  0  0  0  0  0  0  0  0  0  0  0
   45.4950   33.8360   39.7920 F   0  0  0  0  0  0  0  0  0  0  0  0
   46.3930   31.8650   39.3770 F   0  0  0  0  0  0  0  0  0  0  0  0
   44.6520   32.5170   38.1300 F   0  0  0  0  0  0  0  0  0  0  0  0
   47.8678   36.6035   42.3942 H   0  0  0  0  0  0  0  0  0  0  0  0
   50.4327   35.4603   42.0913 H   0  0  0  0  0  0  0  0  0  0  0  0
   49.9397   34.0406   42.4750 H   0  0  0  0  0  0  0  0  0  0  0  0
   48.8296   35.5405   39.7311 H   0  0  0  0  0  0  0  0  0  0  0  0
   46.5049   32.1558   44.6895 H   0  0  0  0  0  0  0  0  0  0  0  0
   48.4200   33.3703   43.6035 H   0  0  0  0  0  0  0  0  0  0  0  0
   43.7480   34.9423   43.0576 H   0  0  0  0  0  0  0  0  0  0  0  0
   49.3732   35.6281   38.3431 H   0  0  0  0  0  0  0  0  0  0  0  0
  1  6  1  0
  2  1  1  0
  3  2  1  0
  3  1  1  0
  5  4  2  0
  6  5  1  0
  7  6  2  0
  7  8  1  0
  8  9  2  0
  9  4  1  0
 10  3  1  0
 12 11  2  0
 12 10  1  0
 13 12  1  0
 14 12  1  0
 14 15  1  0
 15 17  1  0
 15 16  1  0
 18 15  1  0
  1 19  1  6
  2 20  1  0
  2 21  1  0
  3 22  1  6
  4 23  1  0
  5 24  1  0
  8 25  1  0
 13 26  1  0
M  ISO  8  19  13  20  13  21  13  22  13  23  14  24  14  25  14  26   3
M  END
>  <minimizedAffinity>  (1) 
-4.15100241

>  <minimizedRMSD>  (1) 
0.684015214

$$$$
