
     RDKit          3D

 26 27  0  0  1  0  0  0  0  0999 V2000
   48.1980   35.5960   42.0450 C   0  0  1  0  0  0  0  0  0  0  0  0
   49.4720   34.8710   41.9230 C   0  0  0  0  0  0  0  0  0  0  0  0
   48.6010   35.1590   40.7040 C   0  0  1  0  0  0  0  0  0  0  0  0
   46.2760   33.0750   44.0900 C   0  0  0  0  0  0  0  0  0  0  0  0
   47.3700   33.7380   43.5100 C   0  0  0  0  0  0  0  0  0  0  0  0
   47.0850   34.8440   42.7010 C   0  0  0  0  0  0  0  0  0  0  0  0
   45.7920   35.2320   42.5050 N   0  0  0  0  0  0  0  0  0  0  0  0
   44.7660   34.5630   43.0830 C   0  0  0  0  0  0  0  0  0  0  0  0
   45.0140   33.4830   43.8770 N   0  0  0  0  0  0  0  0  0  0  0  0
   47.8620   34.2110   40.1040 O   0  0  0  0  0  0  0  0  0  0  0  0
   49.0440   32.5420   38.4140 O   0  0  0  0  0  0  0  0  0  0  0  0
   48.2020   33.7880   38.5600 P   0  0  2  0  0  0  0  0  0  0  0  0
   49.0030   34.9930   37.6760 O   0  0  0  0  0  0  0  0  0  0  0  0
   46.7600   33.4640   37.7390 O   0  0  0  0  0  0  0  0  0  0  0  0
   47.0390   32.7700   36.5600 C   0  0  0  0  0  0  0  0  0  0  0  0
   47.9002   36.5683   42.4645 H   0  0  0  0  0  0  0  0  0  0  0  0
   50.4262   35.4010   42.0596 H   0  0  0  0  0  0  0  0  0  0  0  0
   49.9119   33.9724   42.3801 H   0  0  0  0  0  0  0  0  0  0  0  0
   48.7973   35.6202   39.7248 H   0  0  0  0  0  0  0  0  0  0  0  0
   46.4568   32.2014   44.7336 H   0  0  0  0  0  0  0  0  0  0  0  0
   48.4034   33.4033   43.6836 H   0  0  0  0  0  0  0  0  0  0  0  0
   43.7304   34.8918   42.9114 H   0  0  0  0  0  0  0  0  0  0  0  0
   49.4283   35.6328   38.3005 H   0  0  0  0  0  0  0  0  0  0  0  0
   47.4389   31.7752   36.8060 H   0  0  0  0  0  0  0  0  0  0  0  0
   46.1156   32.6590   35.9726 H   0  0  0  0  0  0  0  0  0  0  0  0
   47.7823   33.3290   35.9726 H   0  0  0  0  0  0  0  0  0  0  0  0
  1  6  1  0
  2  1  1  0
  3  2  1  0
  3  1  1  0
  5  4  2  0
  6  5  1  0
  7  6  2  0
  7  8  1  0
  8  9  2  0
  9  4  1  0
 10  3  1  0
 12 11  2  0
 12 10  1  0
 13 12  1  0
 14 12  1  0
 15 14  1  0
  1 16  1  6
  2 17  1  0
  2 18  1  0
  3 19  1  6
  4 20  1  0
  5 21  1  0
  8 22  1  0
 13 23  1  0
 15 24  1  0
 15 25  1  0
 15 26  1  0
M  ISO  8  16  13  17  13  18  13  19  13  20  14  21  14  22  14  23   3
M  ISO  3  24   8  25   8  26   8
M  END
>  <minimizedAffinity>  (1) 
-4.04315138

>  <minimizedRMSD>  (1) 
0.515133619

$$$$
