
     RDKit          3D

 29 30  0  0  1  0  0  0  0  0999 V2000
   48.2030   35.6030   42.0400 C   0  0  1  0  0  0  0  0  0  0  0  0
   49.4800   34.8580   41.9290 C   0  0  0  0  0  0  0  0  0  0  0  0
   48.6090   35.1410   40.7110 C   0  0  1  0  0  0  0  0  0  0  0  0
   46.2930   33.0850   44.1160 C   0  0  0  0  0  0  0  0  0  0  0  0
   47.3640   33.7670   43.5220 C   0  0  0  0  0  0  0  0  0  0  0  0
   47.0850   34.8620   42.6940 C   0  0  0  0  0  0  0  0  0  0  0  0
   45.7850   35.2210   42.4980 N   0  0  0  0  0  0  0  0  0  0  0  0
   44.7630   34.5490   43.0810 C   0  0  0  0  0  0  0  0  0  0  0  0
   45.0280   33.4820   43.8880 N   0  0  0  0  0  0  0  0  0  0  0  0
   47.8800   34.1830   40.1160 O   0  0  0  0  0  0  0  0  0  0  0  0
   49.0570   32.5390   38.4000 O   0  0  0  0  0  0  0  0  0  0  0  0
   48.2080   33.7790   38.5590 P   0  0  2  0  0  0  0  0  0  0  0  0
   48.9820   34.9960   37.6780 O   0  0  0  0  0  0  0  0  0  0  0  0
   46.7640   33.4310   37.7500 O   0  0  0  0  0  0  0  0  0  0  0  0
   45.7800   32.9840   38.5990 C   0  0  0  0  0  0  0  0  0  0  0  0
   44.4670   33.0610   37.8500 C   0  0  0  0  0  0  0  0  0  0  0  0
   47.9126   36.5833   42.4458 H   0  0  0  0  0  0  0  0  0  0  0  0
   50.4397   35.3799   42.0580 H   0  0  0  0  0  0  0  0  0  0  0  0
   49.9122   33.9614   42.3972 H   0  0  0  0  0  0  0  0  0  0  0  0
   48.8024   35.5950   39.7279 H   0  0  0  0  0  0  0  0  0  0  0  0
   46.4875   32.2226   44.7705 H   0  0  0  0  0  0  0  0  0  0  0  0
   48.4015   33.4491   43.7022 H   0  0  0  0  0  0  0  0  0  0  0  0
   43.7237   34.8628   42.9041 H   0  0  0  0  0  0  0  0  0  0  0  0
   49.3942   35.6442   38.3025 H   0  0  0  0  0  0  0  0  0  0  0  0
   45.9832   31.9445   38.8959 H   0  0  0  0  0  0  0  0  0  0  0  0
   45.7441   33.5991   39.5102 H   0  0  0  0  0  0  0  0  0  0  0  0
   43.6366   33.1097   38.5698 H   0  0  0  0  0  0  0  0  0  0  0  0
   44.4577   33.9612   37.2179 H   0  0  0  0  0  0  0  0  0  0  0  0
   44.3525   32.1680   37.2179 H   0  0  0  0  0  0  0  0  0  0  0  0
  1  6  1  0
  2  1  1  0
  3  2  1  0
  3  1  1  0
  5  4  2  0
  6  5  1  0
  7  6  2  0
  7  8  1  0
  8  9  2  0
  9  4  1  0
 10  3  1  0
 12 11  2  0
 12 10  1  0
 13 12  1  0
 14 12  1  0
 14 15  1  0
 16 15  1  0
  1 17  1  6
  2 18  1  0
  2 19  1  0
  3 20  1  6
  4 21  1  0
  5 22  1  0
  8 23  1  0
 13 24  1  0
 15 25  1  0
 15 26  1  0
 16 27  1  0
 16 28  1  0
 16 29  1  0
M  ISO  8  17  13  18  13  19  13  20  13  21  14  22  14  23  14  24   3
M  ISO  5  25   8  26   8  27   8  28   8  29   8
M  END
>  <minimizedAffinity>  (1) 
-3.98925042

>  <minimizedRMSD>  (1) 
0.554401755

$$$$
