
     RDKit          3D

 32 34  0  0  1  0  0  0  0  0999 V2000
   48.0670   35.4680   41.8140 C   0  0  1  0  0  0  0  0  0  0  0  0
   49.3270   34.6940   41.6820 C   0  0  0  0  0  0  0  0  0  0  0  0
   48.4980   35.0700   40.4630 C   0  0  1  0  0  0  0  0  0  0  0  0
   46.0490   32.9380   43.7550 C   0  0  0  0  0  0  0  0  0  0  0  0
   47.1550   33.6230   43.2310 C   0  0  0  0  0  0  0  0  0  0  0  0
   46.9180   34.7220   42.4020 C   0  0  0  0  0  0  0  0  0  0  0  0
   45.6330   35.0900   42.1290 N   0  0  0  0  0  0  0  0  0  0  0  0
   44.5860   34.4070   42.6510 C   0  0  0  0  0  0  0  0  0  0  0  0
   44.7930   33.3320   43.4630 N   0  0  0  0  0  0  0  0  0  0  0  0
   47.7400   34.1890   39.7950 O   0  0  0  0  0  0  0  0  0  0  0  0
   48.5140   32.3960   37.9960 O   0  0  0  0  0  0  0  0  0  0  0  0
   48.1080   33.8320   38.2380 P   0  0  2  0  0  0  0  0  0  0  0  0
   49.3330   34.8000   37.5770 O   0  0  0  0  0  0  0  0  0  0  0  0
   46.7380   34.0720   37.2720 O   0  0  0  0  0  0  0  0  0  0  0  0
   45.7930   33.0890   37.0220 C   0  0  0  0  0  0  0  0  0  0  0  0
   45.6570   32.2860   35.9090 C   0  0  0  0  0  0  0  0  0  0  0  0
   44.6600   31.3560   35.8170 C   0  0  0  0  0  0  0  0  0  0  0  0
   43.7560   31.1970   36.8460 C   0  0  0  0  0  0  0  0  0  0  0  0
   43.9250   32.0270   37.9570 C   0  0  0  0  0  0  0  0  0  0  0  0
   44.9190   32.9420   38.0300 N   0  0  0  0  0  0  0  0  0  0  0  0
   47.7909   36.4304   42.2697 H   0  0  0  0  0  0  0  0  0  0  0  0
   50.2970   35.1801   41.8633 H   0  0  0  0  0  0  0  0  0  0  0  0
   49.7225   33.7588   42.1050 H   0  0  0  0  0  0  0  0  0  0  0  0
   48.7423   35.5646   39.5113 H   0  0  0  0  0  0  0  0  0  0  0  0
   46.2080   32.0698   44.4114 H   0  0  0  0  0  0  0  0  0  0  0  0
   48.1809   33.3036   43.4664 H   0  0  0  0  0  0  0  0  0  0  0  0
   43.5587   34.7231   42.4172 H   0  0  0  0  0  0  0  0  0  0  0  0
   49.8569   35.2140   38.3079 H   0  0  0  0  0  0  0  0  0  0  0  0
   46.3673   32.3967   35.0764 H   0  0  0  0  0  0  0  0  0  0  0  0
   44.5781   30.7301   34.9161 H   0  0  0  0  0  0  0  0  0  0  0  0
   42.9447   30.4559   36.7948 H   0  0  0  0  0  0  0  0  0  0  0  0
   43.2261   31.9334   38.8012 H   0  0  0  0  0  0  0  0  0  0  0  0
  1  6  1  0
  2  1  1  0
  3  2  1  0
  3  1  1  0
  5  4  2  0
  6  5  1  0
  7  6  2  0
  7  8  1  0
  8  9  2  0
  9  4  1  0
 10  3  1  0
 12 11  2  0
 12 10  1  0
 13 12  1  0
 14 12  1  0
 15 14  1  0
 15 20  1  0
 16 15  2  0
 17 16  1  0
 17 18  2  0
 18 19  1  0
 19 20  2  0
  1 21  1  6
  2 22  1  0
  2 23  1  0
  3 24  1  6
  4 25  1  0
  5 26  1  0
  8 27  1  0
 13 28  1  0
 16 29  1  0
 17 30  1  0
 18 31  1  0
 19 32  1  0
M  ISO  8  21  13  22  13  23  13  24  13  25  14  26  14  27  14  28   3
M  ISO  4  29  14  30  14  31  14  32  14
M  END
>  <minimizedAffinity>  (1) 
-4.29455519

>  <minimizedRMSD>  (1) 
1.17110717

$$$$
