
     RDKit          3D

 43 46  0  0  1  0  0  0  0  0999 V2000
   47.6800   32.0380   38.3080 O   0  0  0  0  0  0  0  0  0  0  0  0
   46.7420   33.2130   38.5930 P   0  0  2  0  0  0  0  0  0  0  0  0
   46.9910   34.3090   37.3320 O   0  0  0  0  0  0  0  0  0  0  0  0
   46.9560   33.8230   40.0980 O   0  0  0  0  0  0  0  0  0  0  0  0
   48.1800   35.2430   41.6270 C   0  0  1  0  0  0  0  0  0  0  0  0
   49.0880   34.1210   41.3790 C   0  0  0  0  0  0  0  0  0  0  0  0
   48.0540   34.5760   40.3350 C   0  0  1  0  0  0  0  0  0  0  0  0
   46.1780   33.6710   44.4310 C   0  0  0  0  0  0  0  0  0  0  0  0
   47.2110   33.9000   43.5260 C   0  0  0  0  0  0  0  0  0  0  0  0
   47.0930   34.9760   42.6260 C   0  0  0  0  0  0  0  0  0  0  0  0
   45.9760   35.7560   42.6700 N   0  0  0  0  0  0  0  0  0  0  0  0
   44.9920   35.4940   43.5730 C   0  0  0  0  0  0  0  0  0  0  0  0
   45.0930   34.4610   44.4450 N   0  0  0  0  0  0  0  0  0  0  0  0
   45.1970   32.5830   38.4150 O   0  0  0  0  0  0  0  0  0  0  0  0
   44.1370   32.8530   39.2820 C   0  0  0  0  0  0  0  0  0  0  0  0
   44.2000   33.0830   40.6470 C   0  0  0  0  0  0  0  0  0  0  0  0
   43.0680   33.3340   41.3620 C   0  0  0  0  0  0  0  0  0  0  0  0
   41.8500   33.3650   40.7380 C   0  0  0  0  0  0  0  0  0  0  0  0
   41.8120   33.1320   39.3620 C   0  0  0  0  0  0  0  0  0  0  0  0
   42.9550   32.8820   38.6690 N   0  0  0  0  0  0  0  0  0  0  0  0
   39.7320   32.0160   38.4140 C   0  0  0  0  0  0  0  0  0  0  0  0
   40.5370   33.0720   38.6720 C   0  0  0  0  0  0  0  0  0  0  0  0
   40.0350   34.2920   38.2130 C   0  0  0  0  0  0  0  0  0  0  0  0
   38.8260   34.3940   37.5570 C   0  0  0  0  0  0  0  0  0  0  0  0
   38.0460   33.2820   37.3190 C   0  0  0  0  0  0  0  0  0  0  0  0
   38.5200   32.0650   37.7630 C   0  0  0  0  0  0  0  0  0  0  0  0
   40.3950   29.6700   39.3100 N   0  0  0  0  0  0  0  0  0  0  0  0
   40.1070   30.7260   38.9020 C   0  0  0  0  0  0  0  0  0  0  0  0
   47.1940   35.2026   37.7067 H   0  0  0  0  0  0  0  0  0  0  0  0
   48.3232   36.2939   41.9186 H   0  0  0  0  0  0  0  0  0  0  0  0
   50.1605   34.3009   41.2132 H   0  0  0  0  0  0  0  0  0  0  0  0
   49.3324   33.1768   41.8876 H   0  0  0  0  0  0  0  0  0  0  0  0
   48.0946   34.8772   39.2778 H   0  0  0  0  0  0  0  0  0  0  0  0
   46.2518   32.8345   45.1415 H   0  0  0  0  0  0  0  0  0  0  0  0
   48.1009   33.2535   43.5145 H   0  0  0  0  0  0  0  0  0  0  0  0
   44.0970   36.1331   43.5957 H   0  0  0  0  0  0  0  0  0  0  0  0
   45.1737   33.0627   41.1583 H   0  0  0  0  0  0  0  0  0  0  0  0
   43.1329   33.5125   42.4455 H   0  0  0  0  0  0  0  0  0  0  0  0
   40.9287   33.5675   41.3038 H   0  0  0  0  0  0  0  0  0  0  0  0
   40.6255   35.2048   38.3808 H   0  0  0  0  0  0  0  0  0  0  0  0
   38.4776   35.3806   37.2174 H   0  0  0  0  0  0  0  0  0  0  0  0
   37.0822   33.3624   36.7949 H   0  0  0  0  0  0  0  0  0  0  0  0
   37.9376   31.1464   37.5991 H   0  0  0  0  0  0  0  0  0  0  0  0
  2  1  2  0
  2  4  1  0
  3  2  1  0
  4  7  1  0
  5 10  1  0
  6  5  1  0
  7  6  1  0
  7  5  1  0
  8 13  2  0
  9  8  1  0
 10 11  1  0
 10  9  2  0
 11 12  2  0
 12 13  1  0
 14  2  1  0
 14 15  1  0
 15 16  2  0
 16 17  1  0
 18 17  2  0
 19 18  1  0
 20 15  1  0
 20 19  2  0
 21 22  2  0
 21 28  1  0
 22 19  1  0
 23 22  1  0
 24 23  2  0
 25 24  1  0
 25 26  2  0
 26 21  1  0
 28 27  3  0
  3 29  1  0
  5 30  1  6
  6 31  1  0
  6 32  1  0
  7 33  1  6
  8 34  1  0
  9 35  1  0
 12 36  1  0
 16 37  1  0
 17 38  1  0
 18 39  1  0
 23 40  1  0
 24 41  1  0
 25 42  1  0
 26 43  1  0
M  ISO  8  29   3  30  13  31  13  32  13  33  13  34  14  35  14  36  14
M  ISO  7  37  14  38  14  39  14  40  14  41  14  42  14  43  14
M  END
>  <minimizedAffinity>  (1) 
-6.03812933

>  <minimizedRMSD>  (1) 
2.91540289

$$$$
