
     RDKit          3D

 48 51  0  0  1  0  0  0  0  0999 V2000
   48.8760   32.4730   38.4050 O   0  0  0  0  0  0  0  0  0  0  0  0
   48.0570   33.7600   38.5120 P   0  0  2  0  0  0  0  0  0  0  0  0
   48.9220   34.9140   37.6190 O   0  0  0  0  0  0  0  0  0  0  0  0
   47.7530   34.1760   40.0630 O   0  0  0  0  0  0  0  0  0  0  0  0
   48.2150   35.5410   42.0080 C   0  0  1  0  0  0  0  0  0  0  0  0
   49.4350   34.7450   41.8290 C   0  0  0  0  0  0  0  0  0  0  0  0
   48.5250   35.1140   40.6430 C   0  0  1  0  0  0  0  0  0  0  0  0
   46.2790   33.0540   44.1100 C   0  0  0  0  0  0  0  0  0  0  0  0
   47.3410   33.7130   43.5010 C   0  0  0  0  0  0  0  0  0  0  0  0
   47.0770   34.8300   42.6870 C   0  0  0  0  0  0  0  0  0  0  0  0
   45.7970   35.2380   42.5150 N   0  0  0  0  0  0  0  0  0  0  0  0
   44.7740   34.5760   43.1220 C   0  0  0  0  0  0  0  0  0  0  0  0
   45.0140   33.4910   43.9140 N   0  0  0  0  0  0  0  0  0  0  0  0
   46.6350   33.4360   37.6790 O   0  0  0  0  0  0  0  0  0  0  0  0
   45.5120   32.8730   38.2470 C   0  0  0  0  0  0  0  0  0  0  0  0
   45.3710   31.6460   38.8570 C   0  0  0  0  0  0  0  0  0  0  0  0
   44.1890   31.2240   39.3740 C   0  0  0  0  0  0  0  0  0  0  0  0
   43.0830   32.0300   39.2970 C   0  0  0  0  0  0  0  0  0  0  0  0
   43.2370   33.2800   38.6720 C   0  0  0  0  0  0  0  0  0  0  0  0
   44.4420   33.6610   38.1680 N   0  0  0  0  0  0  0  0  0  0  0  0
   42.0110   34.1450   38.6000 C   0  0  0  0  0  0  0  0  0  0  0  0
   40.8030   33.3690   38.1980 C   0  0  0  0  0  0  0  0  0  0  0  0
   39.5040   34.0410   38.3930 C   0  0  0  0  0  0  0  0  0  0  0  0
   39.4340   34.9500   39.5870 C   0  0  0  0  0  0  0  0  0  0  0  0
   40.5460   34.4390   40.5160 C   0  0  0  0  0  0  0  0  0  0  0  0
   41.8210   34.9080   39.8580 C   0  0  0  0  0  0  0  0  0  0  0  0
   49.3850   35.5317   38.2388 H   0  0  0  0  0  0  0  0  0  0  0  0
   48.0004   36.5206   42.4601 H   0  0  0  0  0  0  0  0  0  0  0  0
   50.4243   35.2138   41.9363 H   0  0  0  0  0  0  0  0  0  0  0  0
   49.8381   33.8137   42.2535 H   0  0  0  0  0  0  0  0  0  0  0  0
   48.6735   35.6067   39.6708 H   0  0  0  0  0  0  0  0  0  0  0  0
   46.4671   32.1792   44.7498 H   0  0  0  0  0  0  0  0  0  0  0  0
   48.3736   33.3659   43.6534 H   0  0  0  0  0  0  0  0  0  0  0  0
   43.7401   34.9203   42.9720 H   0  0  0  0  0  0  0  0  0  0  0  0
   46.2472   30.9848   38.9276 H   0  0  0  0  0  0  0  0  0  0  0  0
   44.1188   30.2367   39.8540 H   0  0  0  0  0  0  0  0  0  0  0  0
   42.1136   31.7116   39.7078 H   0  0  0  0  0  0  0  0  0  0  0  0
   42.1665   34.8863   37.8023 H   0  0  0  0  0  0  0  0  0  0  0  0
   40.7911   32.4384   38.7844 H   0  0  0  0  0  0  0  0  0  0  0  0
   40.8971   33.2181   37.1125 H   0  0  0  0  0  0  0  0  0  0  0  0
   39.2910   34.6396   37.4951 H   0  0  0  0  0  0  0  0  0  0  0  0
   38.7678   33.2430   38.5697 H   0  0  0  0  0  0  0  0  0  0  0  0
   39.6196   35.9939   39.2939 H   0  0  0  0  0  0  0  0  0  0  0  0
   38.4448   34.9381   40.0680 H   0  0  0  0  0  0  0  0  0  0  0  0
   40.4438   34.8719   41.5221 H   0  0  0  0  0  0  0  0  0  0  0  0
   40.5165   33.3474   40.6486 H   0  0  0  0  0  0  0  0  0  0  0  0
   42.6727   34.7310   40.5313 H   0  0  0  0  0  0  0  0  0  0  0  0
   41.7581   35.9843   39.6396 H   0  0  0  0  0  0  0  0  0  0  0  0
  2  1  2  0
  2  4  1  0
  3  2  1  0
  4  7  1  0
  5 10  1  0
  6  5  1  0
  7  6  1  0
  7  5  1  0
  9  8  2  0
 10  9  1  0
 11 10  2  0
 11 12  1  0
 12 13  2  0
 13  8  1  0
 14 15  1  0
 14  2  1  0
 15 16  2  0
 16 17  1  0
 18 17  2  0
 19 18  1  0
 20 15  1  0
 20 19  2  0
 21 19  1  0
 21 26  1  0
 22 23  1  0
 22 21  1  0
 23 24  1  0
 24 25  1  0
 26 25  1  0
  3 27  1  0
  5 28  1  6
  6 29  1  0
  6 30  1  0
  7 31  1  6
  8 32  1  0
  9 33  1  0
 12 34  1  0
 16 35  1  0
 17 36  1  0
 18 37  1  0
 21 38  1  0
 22 39  1  0
 22 40  1  0
 23 41  1  0
 23 42  1  0
 24 43  1  0
 24 44  1  0
 25 45  1  0
 25 46  1  0
 26 47  1  0
 26 48  1  0
M  ISO  8  27   3  28  13  29  13  30  13  31  13  32  14  33  14  34  14
M  ISO  8  35  14  36  14  37  14  38  13  39  13  40  13  41  13  42  13
M  ISO  6  43  13  44  13  45  13  46  13  47  13  48  13
M  END
>  <minimizedAffinity>  (1) 
-5.7297616

>  <minimizedRMSD>  (1) 
2.16288424

$$$$
