
     RDKit          3D

 34 36  0  0  1  0  0  0  0  0999 V2000
   47.7510   34.1590   39.7990 O   0  0  0  0  0  0  0  0  0  0  0  0
   48.0920   35.4640   41.8090 C   0  0  1  0  0  0  0  0  0  0  0  0
   49.3250   34.6780   41.6760 C   0  0  0  0  0  0  0  0  0  0  0  0
   48.4860   35.0760   40.4510 C   0  0  1  0  0  0  0  0  0  0  0  0
   46.0550   32.9340   43.7610 C   0  0  0  0  0  0  0  0  0  0  0  0
   47.1480   33.6150   43.2370 C   0  0  0  0  0  0  0  0  0  0  0  0
   46.9230   34.7250   42.3980 C   0  0  0  0  0  0  0  0  0  0  0  0
   45.6520   35.1010   42.1240 N   0  0  0  0  0  0  0  0  0  0  0  0
   44.5990   34.4170   42.6490 C   0  0  0  0  0  0  0  0  0  0  0  0
   44.8040   33.3350   43.4680 N   0  0  0  0  0  0  0  0  0  0  0  0
   48.5170   32.4060   37.9940 O   0  0  0  0  0  0  0  0  0  0  0  0
   48.0920   33.8550   38.2290 P   0  0  2  0  0  0  0  0  0  0  0  0
   49.3400   34.7960   37.5760 O   0  0  0  0  0  0  0  0  0  0  0  0
   46.7360   34.0650   37.2610 O   0  0  0  0  0  0  0  0  0  0  0  0
   45.7880   33.0860   37.0240 C   0  0  0  0  0  0  0  0  0  0  0  0
   45.6510   32.2740   35.9130 C   0  0  0  0  0  0  0  0  0  0  0  0
   44.6580   31.3430   35.8200 C   0  0  0  0  0  0  0  0  0  0  0  0
   43.7570   31.1950   36.8530 C   0  0  0  0  0  0  0  0  0  0  0  0
   43.9250   32.0320   37.9610 C   0  0  0  0  0  0  0  0  0  0  0  0
   44.9210   32.9450   38.0210 N   0  0  0  0  0  0  0  0  0  0  0  0
   42.9860   31.8740   39.0330 N   0  0  0  0  0  0  0  0  0  0  0  0
   47.8449   36.4289   42.2758 H   0  0  0  0  0  0  0  0  0  0  0  0
   50.3038   35.1474   41.8540 H   0  0  0  0  0  0  0  0  0  0  0  0
   49.7075   33.7361   42.0961 H   0  0  0  0  0  0  0  0  0  0  0  0
   48.6926   35.5942   39.5029 H   0  0  0  0  0  0  0  0  0  0  0  0
   46.2130   32.0651   44.4168 H   0  0  0  0  0  0  0  0  0  0  0  0
   48.1727   33.2925   43.4736 H   0  0  0  0  0  0  0  0  0  0  0  0
   43.5724   34.7349   42.4143 H   0  0  0  0  0  0  0  0  0  0  0  0
   49.8704   35.1959   38.3100 H   0  0  0  0  0  0  0  0  0  0  0  0
   46.3625   32.3817   35.0810 H   0  0  0  0  0  0  0  0  0  0  0  0
   44.5764   30.7118   34.9228 H   0  0  0  0  0  0  0  0  0  0  0  0
   42.9450   30.4543   36.8080 H   0  0  0  0  0  0  0  0  0  0  0  0
   43.0610   32.4634   39.8744 H   0  0  0  0  0  0  0  0  0  0  0  0
   42.2365   31.1711   38.9617 H   0  0  0  0  0  0  0  0  0  0  0  0
  1  4  1  0
  2  7  1  0
  3  2  1  0
  4  3  1  0
  4  2  1  0
  6  5  2  0
  7  6  1  0
  8  7  2  0
  8  9  1  0
  9 10  2  0
 10  5  1  0
 12 11  2  0
 12  1  1  0
 13 12  1  0
 14 12  1  0
 15 14  1  0
 15 20  1  0
 16 15  2  0
 17 16  1  0
 17 18  2  0
 18 19  1  0
 19 20  2  0
 19 21  1  0
  2 22  1  6
  3 23  1  0
  3 24  1  0
  4 25  1  6
  5 26  1  0
  6 27  1  0
  9 28  1  0
 13 29  1  0
 16 30  1  0
 17 31  1  0
 18 32  1  0
 21 33  1  0
 21 34  1  0
M  ISO  8  22  13  23  13  24  13  25  13  26  14  27  14  28  14  29   3
M  ISO  3  30  14  31  14  32  14
M  END
>  <minimizedAffinity>  (1) 
-4.37358379

>  <minimizedRMSD>  (1) 
0.0150475511

$$$$
