
     RDKit          3D

 12 12  0  0  0  0  0  0  0  0999 V2000
   44.5750   36.0030   44.4810 C   0  0  0  0  0  0  0  0  0  0  0  0
   45.3230   35.9120   43.2950 C   0  0  0  0  0  0  0  0  0  0  0  0
   46.2160   34.8470   43.1700 C   0  0  0  0  0  0  0  0  0  0  0  0
   46.3160   33.9580   44.1970 N   0  0  0  0  0  0  0  0  0  0  0  0
   45.5790   34.0790   45.3240 C   0  0  0  0  0  0  0  0  0  0  0  0
   44.7040   35.1050   45.4690 N   0  0  0  0  0  0  0  0  0  0  0  0
   46.9690   34.7810   41.9420 C   0  0  0  0  0  0  0  0  0  0  0  0
   48.0490   35.3990   41.7400 O   0  0  0  0  0  0  0  0  0  0  0  0
   43.8641   36.8335   44.6026 H   0  0  0  0  0  0  0  0  0  0  0  0
   45.2085   36.6552   42.4922 H   0  0  0  0  0  0  0  0  0  0  0  0
   45.6900   33.3389   46.1302 H   0  0  0  0  0  0  0  0  0  0  0  0
   46.5761   34.1515   41.1300 H   0  0  0  0  0  0  0  0  0  0  0  0
  1  6  2  0
  2  1  1  0
  3  2  2  0
  3  4  1  0
  4  5  2  0
  5  6  1  0
  7  3  1  0
  8  7  2  0
  1  9  1  0
  2 10  1  0
  5 11  1  0
  7 12  1  0
M  ISO  4   9  14  10  14  11  14  12   6
M  END
>  <minimizedAffinity>  (1) 
-3.12643123

>  <minimizedRMSD>  (1) 
0.447146952

$$$$
