
     RDKit          3D

 22 23  0  0  0  0  0  0  0  0999 V2000
   47.4000   33.7690   42.8070 C   0  0  0  0  0  0  0  0  0  0  0  0
   48.3800   33.0860   43.2350 O   0  0  0  0  0  0  0  0  0  0  0  0
   44.7380   36.0370   44.0300 C   0  0  0  0  0  0  0  0  0  0  0  0
   45.7100   35.4710   43.1990 C   0  0  0  0  0  0  0  0  0  0  0  0
   46.3990   34.3440   43.6770 C   0  0  0  0  0  0  0  0  0  0  0  0
   46.0890   33.8590   44.9220 N   0  0  0  0  0  0  0  0  0  0  0  0
   45.1450   34.4500   45.6720 C   0  0  0  0  0  0  0  0  0  0  0  0
   44.4700   35.5320   45.2330 N   0  0  0  0  0  0  0  0  0  0  0  0
   49.1110   35.9770   41.5710 Cl  0  0  0  0  0  0  0  0  0  0  0  0
   48.2710   34.7600   40.6770 C   0  0  0  0  0  0  0  0  0  0  0  0
   47.5320   33.8200   41.3610 C   0  0  0  0  0  0  0  0  0  0  0  0
   46.8440   32.8310   40.6910 C   0  0  0  0  0  0  0  0  0  0  0  0
   46.9020   32.7870   39.3040 C   0  0  0  0  0  0  0  0  0  0  0  0
   47.6380   33.7250   38.6230 C   0  0  0  0  0  0  0  0  0  0  0  0
   48.3330   34.7210   39.2800 C   0  0  0  0  0  0  0  0  0  0  0  0
   44.1818   36.9199   43.6820 H   0  0  0  0  0  0  0  0  0  0  0  0
   45.9272   35.8931   42.2067 H   0  0  0  0  0  0  0  0  0  0  0  0
   44.9168   34.0421   46.6678 H   0  0  0  0  0  0  0  0  0  0  0  0
   46.2565   32.0861   41.2478 H   0  0  0  0  0  0  0  0  0  0  0  0
   46.3604   32.0038   38.7533 H   0  0  0  0  0  0  0  0  0  0  0  0
   47.6750   33.6819   37.5245 H   0  0  0  0  0  0  0  0  0  0  0  0
   48.9197   35.4639   38.7198 H   0  0  0  0  0  0  0  0  0  0  0  0
  1  2  2  0
  1  5  1  0
  3  8  2  0
  4  5  2  0
  4  3  1  0
  5  6  1  0
  6  7  2  0
  8  7  1  0
 10 11  2  0
 10  9  1  0
 11  1  1  0
 12 11  1  0
 13 12  2  0
 14 15  2  0
 14 13  1  0
 15 10  1  0
  3 16  1  0
  4 17  1  0
  7 18  1  0
 12 19  1  0
 13 20  1  0
 14 21  1  0
 15 22  1  0
M  ISO  7  16  14  17  14  18  14  19  14  20  14  21  14  22  14
M  END
>  <minimizedAffinity>  (1) 
-4.83313799

>  <minimizedRMSD>  (1) 
1.48090839

$$$$
