
     RDKit          3D

 27 28  0  0  0  0  0  0  0  0999 V2000
   44.5860   36.0370   44.4960 C   0  0  0  0  0  0  0  0  0  0  0  0
   45.3500   35.9160   43.3220 C   0  0  0  0  0  0  0  0  0  0  0  0
   46.2110   34.8390   43.1930 C   0  0  0  0  0  0  0  0  0  0  0  0
   46.2810   33.9420   44.2080 N   0  0  0  0  0  0  0  0  0  0  0  0
   45.5390   34.0710   45.3300 C   0  0  0  0  0  0  0  0  0  0  0  0
   44.6820   35.1230   45.4860 N   0  0  0  0  0  0  0  0  0  0  0  0
   46.9610   34.7760   41.9690 C   0  0  0  0  0  0  0  0  0  0  0  0
   47.9820   35.4920   41.7240 O   0  0  0  0  0  0  0  0  0  0  0  0
   46.4280   33.8060   41.0420 N   0  0  0  0  0  0  0  0  0  0  0  0
   45.0800   33.3760   40.8780 C   0  0  0  0  0  0  0  0  0  0  0  0
   44.6150   33.3660   39.4440 C   0  0  0  0  0  0  0  0  0  0  0  0
   45.6300   32.6090   38.6040 C   0  0  0  0  0  0  0  0  0  0  0  0
   46.9370   33.3640   38.7120 C   0  0  0  0  0  0  0  0  0  0  0  0
   47.3880   33.1890   40.1600 C   0  0  0  0  0  0  0  0  0  0  0  0
   43.8996   36.8890   44.6101 H   0  0  0  0  0  0  0  0  0  0  0  0
   45.2653   36.6639   42.5198 H   0  0  0  0  0  0  0  0  0  0  0  0
   45.6263   33.3190   46.1280 H   0  0  0  0  0  0  0  0  0  0  0  0
   44.9902   32.3556   41.2789 H   0  0  0  0  0  0  0  0  0  0  0  0
   44.4461   34.0966   41.4155 H   0  0  0  0  0  0  0  0  0  0  0  0
   43.6358   32.8695   39.3766 H   0  0  0  0  0  0  0  0  0  0  0  0
   44.5206   34.3980   39.0751 H   0  0  0  0  0  0  0  0  0  0  0  0
   45.3004   32.5706   37.5553 H   0  0  0  0  0  0  0  0  0  0  0  0
   45.7418   31.5736   38.9582 H   0  0  0  0  0  0  0  0  0  0  0  0
   47.6833   32.9420   38.0228 H   0  0  0  0  0  0  0  0  0  0  0  0
   46.8198   34.4248   38.4455 H   0  0  0  0  0  0  0  0  0  0  0  0
   47.4635   32.1167   40.3932 H   0  0  0  0  0  0  0  0  0  0  0  0
   48.3701   33.6649   40.2975 H   0  0  0  0  0  0  0  0  0  0  0  0
  1  6  2  0
  2  1  1  0
  3  2  2  0
  3  4  1  0
  4  5  2  0
  5  6  1  0
  7  3  1  0
  8  7  2  0
  9  7  1  0
 10  9  1  0
 11 10  1  0
 12 13  1  0
 12 11  1  0
 13 14  1  0
 14  9  1  0
  1 15  1  0
  2 16  1  0
  5 17  1  0
 10 18  1  0
 10 19  1  0
 11 20  1  0
 11 21  1  0
 12 22  1  0
 12 23  1  0
 13 24  1  0
 13 25  1  0
 14 26  1  0
 14 27  1  0
M  ISO  8  15  14  16  14  17  14  18  13  19  13  20  13  21  13  22  13
M  ISO  5  23  13  24  13  25  13  26  13  27  13
M  END
>  <minimizedAffinity>  (1) 
-4.17038298

>  <minimizedRMSD>  (1) 
0.246220663

$$$$
