
     RDKit          3D

 31 33  0  0  1  0  0  0  0  0999 V2000
   47.9190   33.1670   38.1980 C   0  0  0  0  0  0  0  0  0  0  0  0
   48.9170   32.3130   38.8580 C   0  0  0  0  0  0  0  0  0  0  0  0
   49.0800   32.6690   40.2240 N   0  0  0  0  0  0  0  0  0  0  0  0
   49.5110   33.0530   41.5210 C   0  0  0  0  0  0  0  0  0  0  0  0
   50.7140   33.1900   41.9250 O   0  0  0  0  0  0  0  0  0  0  0  0
   48.1300   33.1870   42.0530 C   0  0  2  0  0  0  0  0  0  0  0  0
   47.7610   32.5710   40.7520 C   0  0  1  0  0  0  0  0  0  0  0  0
   46.8630   33.6710   39.6010 S   0  0  0  0  0  0  0  0  0  0  0  0
   47.8150   34.6160   42.2610 C   0  0  0  0  0  0  0  0  0  0  0  0
   48.3350   35.6310   41.7040 O   0  0  0  0  0  0  0  0  0  0  0  0
   44.7760   35.7860   44.0000 C   0  0  0  0  0  0  0  0  0  0  0  0
   45.8120   35.6820   43.0560 C   0  0  0  0  0  0  0  0  0  0  0  0
   46.7730   34.6900   43.2460 C   0  0  0  0  0  0  0  0  0  0  0  0
   46.6700   33.8610   44.3330 N   0  0  0  0  0  0  0  0  0  0  0  0
   45.6480   34.0000   45.2210 C   0  0  0  0  0  0  0  0  0  0  0  0
   44.6940   34.9610   45.0630 N   0  0  0  0  0  0  0  0  0  0  0  0
   47.0450   32.3170   37.2990 C   0  0  0  0  0  0  0  0  0  0  0  0
   48.4830   34.3590   37.4760 C   0  0  0  0  0  0  0  0  0  0  0  0
   48.5877   31.2652   38.7978 H   0  0  0  0  0  0  0  0  0  0  0  0
   49.8816   32.4483   38.3469 H   0  0  0  0  0  0  0  0  0  0  0  0
   47.7264   32.7884   42.9955 H   0  0  0  0  0  0  0  0  0  0  0  0
   47.1777   31.6445   40.8587 H   0  0  0  0  0  0  0  0  0  0  0  0
   44.0093   36.5636   43.8675 H   0  0  0  0  0  0  0  0  0  0  0  0
   45.8631   36.3627   42.1934 H   0  0  0  0  0  0  0  0  0  0  0  0
   45.5905   33.3220   46.0853 H   0  0  0  0  0  0  0  0  0  0  0  0
   46.3922   31.6821   37.9161 H   0  0  0  0  0  0  0  0  0  0  0  0
   46.4279   32.9697   36.6640 H   0  0  0  0  0  0  0  0  0  0  0  0
   47.6802   31.6819   36.6640 H   0  0  0  0  0  0  0  0  0  0  0  0
   48.8336   35.0999   38.2096 H   0  0  0  0  0  0  0  0  0  0  0  0
   49.3259   34.0405   36.8451 H   0  0  0  0  0  0  0  0  0  0  0  0
   47.7022   34.8087   36.8451 H   0  0  0  0  0  0  0  0  0  0  0  0
  1  2  1  0
  1  8  1  0
  2  3  1  0
  3  7  1  0
  3  4  1  0
  4  5  2  0
  4  6  1  0
  6  9  1  0
  7  8  1  0
  7  6  1  0
  9 13  1  0
 10  9  2  0
 11 16  2  0
 12 13  2  0
 12 11  1  0
 13 14  1  0
 14 15  2  0
 16 15  1  0
 17  1  1  0
 18  1  1  0
  2 19  1  0
  2 20  1  0
  6 21  1  1
  7 22  1  1
 11 23  1  0
 12 24  1  0
 15 25  1  0
 17 26  1  0
 17 27  1  0
 17 28  1  0
 18 29  1  0
 18 30  1  0
 18 31  1  0
M  ISO  8  19  13  20  13  21  13  22  13  23  14  24  14  25  14  26   8
M  ISO  5  27   8  28   8  29   8  30   8  31   8
M  END
>  <minimizedAffinity>  (1) 
-4.79339123

>  <minimizedRMSD>  (1) 
1.81722581

$$$$
