
     RDKit          3D

 45 48  0  0  1  0  0  0  0  0999 V2000
   43.4030   32.0730   41.6540 C   0  0  0  0  0  0  0  0  0  0  0  0
   43.7630   30.7900   42.1420 C   0  0  0  0  0  0  0  0  0  0  0  0
   44.7190   30.6610   43.1540 C   0  0  0  0  0  0  0  0  0  0  0  0
   45.2560   31.8060   43.6160 N   0  0  0  0  0  0  0  0  0  0  0  0
   44.9000   33.0200   43.1380 C   0  0  0  0  0  0  0  0  0  0  0  0
   43.9990   33.1450   42.1830 N   0  0  0  0  0  0  0  0  0  0  0  0
   45.5220   34.2520   43.7080 C   0  0  2  0  0  0  0  0  0  0  0  0
   45.5060   35.5470   43.0380 C   0  0  0  0  0  0  0  0  0  0  0  0
   46.7840   34.8200   43.0700 C   0  0  2  0  0  0  0  0  0  0  0  0
   47.3600   34.1820   41.8650 C   0  0  0  0  0  0  0  0  0  0  0  0
   47.0200   34.3520   40.5400 C   0  0  0  0  0  0  0  0  0  0  0  0
   47.6510   33.6630   39.5270 C   0  0  0  0  0  0  0  0  0  0  0  0
   48.6630   32.7620   39.7840 C   0  0  0  0  0  0  0  0  0  0  0  0
   48.9860   32.6100   41.1160 C   0  0  0  0  0  0  0  0  0  0  0  0
   48.3650   33.2850   42.1000 N   0  0  0  0  0  0  0  0  0  0  0  0
   42.3960   32.1410   40.6020 C   0  0  0  0  0  0  0  0  0  0  0  0
   42.6250   32.9870   39.5970 C   0  0  0  0  0  0  0  0  0  0  0  0
   41.6630   33.1360   38.4760 C   0  0  0  0  0  0  0  0  0  0  0  0
   40.2670   35.9340   40.2740 C   0  0  1  0  0  0  0  0  0  0  0  0
   41.3840   35.4790   39.3270 C   0  0  0  0  0  0  0  0  0  0  0  0
   40.7300   34.3170   38.6750 C   0  0  2  0  0  0  0  0  0  0  0  0
   39.6220   33.9630   39.4010 O   0  0  0  0  0  0  0  0  0  0  0  0
   39.6110   34.6150   40.5920 C   0  0  0  0  0  0  0  0  0  0  0  0
   40.8010   36.5520   41.3890 O   0  0  0  0  0  0  0  0  0  0  0  0
   43.2871   29.8918   41.7216 H   0  0  0  0  0  0  0  0  0  0  0  0
   45.0159   29.6789   43.5506 H   0  0  0  0  0  0  0  0  0  0  0  0
   45.2054   33.9076   44.7036 H   0  0  0  0  0  0  0  0  0  0  0  0
   45.3888   36.4644   43.6336 H   0  0  0  0  0  0  0  0  0  0  0  0
   44.8959   35.9796   42.2314 H   0  0  0  0  0  0  0  0  0  0  0  0
   47.8063   35.0619   43.3961 H   0  0  0  0  0  0  0  0  0  0  0  0
   46.2190   35.0607   40.2829 H   0  0  0  0  0  0  0  0  0  0  0  0
   47.3394   33.8362   38.4864 H   0  0  0  0  0  0  0  0  0  0  0  0
   49.1749   32.2055   38.9851 H   0  0  0  0  0  0  0  0  0  0  0  0
   49.7868   31.9057   41.3858 H   0  0  0  0  0  0  0  0  0  0  0  0
   41.4875   31.5218   40.6358 H   0  0  0  0  0  0  0  0  0  0  0  0
   43.5466   33.5875   39.5986 H   0  0  0  0  0  0  0  0  0  0  0  0
   41.0616   32.2180   38.4007 H   0  0  0  0  0  0  0  0  0  0  0  0
   42.2403   33.3125   37.5564 H   0  0  0  0  0  0  0  0  0  0  0  0
   39.5692   36.6784   39.8630 H   0  0  0  0  0  0  0  0  0  0  0  0
   41.6421   36.2613   38.5981 H   0  0  0  0  0  0  0  0  0  0  0  0
   42.3390   35.2490   39.8220 H   0  0  0  0  0  0  0  0  0  0  0  0
   40.4311   34.6233   37.6617 H   0  0  0  0  0  0  0  0  0  0  0  0
   40.1862   34.0617   41.3490 H   0  0  0  0  0  0  0  0  0  0  0  0
   38.6000   34.7280   41.0105 H   0  0  0  0  0  0  0  0  0  0  0  0
   40.4362   36.1298   42.2068 H   0  0  0  0  0  0  0  0  0  0  0  0
  1  2  2  0
  1  6  1  0
  2  3  1  0
  3  4  2  0
  5  4  1  0
  5  7  1  0
  6  5  2  0
  8  9  1  0
  8  7  1  0
  9  7  1  0
 10 15  1  0
 10  9  1  0
 11 10  2  0
 12 13  2  0
 12 11  1  0
 13 14  1  0
 14 15  2  0
 16  1  1  0
 17 16  2  0
 18 21  1  0
 18 17  1  0
 19 23  1  0
 19 24  1  0
 20 19  1  0
 21 20  1  0
 21 22  1  0
 22 23  1  0
  2 25  1  0
  3 26  1  0
  7 27  1  1
  8 28  1  0
  8 29  1  0
  9 30  1  1
 11 31  1  0
 12 32  1  0
 13 33  1  0
 14 34  1  0
 16 35  1  0
 17 36  1  0
 18 37  1  0
 18 38  1  0
 19 39  1  6
 20 40  1  0
 20 41  1  0
 21 42  1  6
 23 43  1  0
 23 44  1  0
 24 45  1  0
M  ISO  8  25  14  26  14  27  13  28  13  29  13  30  13  31  14  32  14
M  ISO  8  33  14  34  14  37   8  38   8  39  13  40  13  41  13  42  13
M  ISO  3  43  13  44  13  45   3
M  END
>  <minimizedAffinity>  (1) 
-5.12692595

>  <minimizedRMSD>  (1) 
6.31584263

$$$$
