
     RDKit          3D

 21 22  0  0  0  0  0  0  0  0999 V2000
   45.1750   35.1390   43.4660 C   0  0  0  0  0  0  0  0  0  0  0  0
   46.2630   35.2120   42.5780 C   0  0  0  0  0  0  0  0  0  0  0  0
   47.3580   34.4200   42.8890 C   0  0  0  0  0  0  0  0  0  0  0  0
   47.3400   33.6250   44.0090 N   0  0  0  0  0  0  0  0  0  0  0  0
   46.2670   33.5850   44.8390 C   0  0  0  0  0  0  0  0  0  0  0  0
   45.1860   34.3460   44.5610 N   0  0  0  0  0  0  0  0  0  0  0  0
   43.3160   35.3890   42.0660 C   0  0  0  0  0  0  0  0  0  0  0  0
   43.7270   34.3020   41.5440 O   0  0  0  0  0  0  0  0  0  0  0  0
   44.0490   35.9510   43.1500 N   0  0  0  0  0  0  0  0  0  0  0  0
   48.5660   34.3990   41.9970 C   0  0  0  0  0  0  0  0  0  0  0  0
   48.9580   35.7750   41.4960 C   0  0  0  0  0  0  0  0  0  0  0  0
   49.8110   34.9610   42.5040 C   0  0  0  0  0  0  0  0  0  0  0  0
   46.2464   35.8594   41.6888 H   0  0  0  0  0  0  0  0  0  0  0  0
   46.2774   32.9392   45.7294 H   0  0  0  0  0  0  0  0  0  0  0  0
   42.4106   35.8849   41.6860 H   0  0  0  0  0  0  0  0  0  0  0  0
   43.7993   36.8233   43.6375 H   0  0  0  0  0  0  0  0  0  0  0  0
   48.3359   33.4246   41.5413 H   0  0  0  0  0  0  0  0  0  0  0  0
   49.3003   35.9161   40.4602 H   0  0  0  0  0  0  0  0  0  0  0  0
   48.4969   36.7732   41.4664 H   0  0  0  0  0  0  0  0  0  0  0  0
   49.8796   35.2857   43.5527 H   0  0  0  0  0  0  0  0  0  0  0  0
   50.8571   34.6225   42.5386 H   0  0  0  0  0  0  0  0  0  0  0  0
  1  6  2  0
  2  3  2  0
  2  1  1  0
  3  4  1  0
  4  5  2  0
  6  5  1  0
  7  9  1  0
  8  7  2  0
  9  1  1  0
 10 12  1  0
 10  3  1  0
 11 10  1  0
 11 12  1  0
  2 13  1  0
  5 14  1  0
  7 15  1  0
  9 16  1  0
 10 17  1  0
 11 18  1  0
 11 19  1  0
 12 20  1  0
 12 21  1  0
M  ISO  8  13  14  14  14  15   6  17  13  18  13  19  13  20  13  21  13
M  END
>  <minimizedAffinity>  (1) 
-4.74018192

>  <minimizedRMSD>  (1) 
1.51813471

$$$$
