
     RDKit          3D

 19 20  0  0  0  0  0  0  0  0999 V2000
   45.6250   34.6850   44.0600 C   0  0  0  0  0  0  0  0  0  0  0  0
   46.6010   34.9530   43.0890 C   0  0  0  0  0  0  0  0  0  0  0  0
   47.6380   34.0310   43.0140 C   0  0  0  0  0  0  0  0  0  0  0  0
   47.6690   32.9420   43.8530 N   0  0  0  0  0  0  0  0  0  0  0  0
   46.6860   32.7370   44.7790 C   0  0  0  0  0  0  0  0  0  0  0  0
   45.6750   33.6150   44.8700 N   0  0  0  0  0  0  0  0  0  0  0  0
   48.7330   34.1940   41.9980 C   0  0  0  0  0  0  0  0  0  0  0  0
   48.8890   35.6260   41.5330 C   0  0  0  0  0  0  0  0  0  0  0  0
   49.9510   34.8930   42.3990 C   0  0  0  0  0  0  0  0  0  0  0  0
   44.5160   35.6290   44.1770 C   0  0  0  0  0  0  0  0  0  0  0  0
   44.6970   36.8310   44.4970 O   0  0  0  0  0  0  0  0  0  0  0  0
   46.5491   35.8333   42.4314 H   0  0  0  0  0  0  0  0  0  0  0  0
   46.7226   31.8611   45.4434 H   0  0  0  0  0  0  0  0  0  0  0  0
   48.5782   33.2156   41.5196 H   0  0  0  0  0  0  0  0  0  0  0  0
   49.0896   35.8510   40.4751 H   0  0  0  0  0  0  0  0  0  0  0  0
   48.3049   36.5551   41.6075 H   0  0  0  0  0  0  0  0  0  0  0  0
   50.0977   35.1824   43.4501 H   0  0  0  0  0  0  0  0  0  0  0  0
   51.0285   34.6936   42.3027 H   0  0  0  0  0  0  0  0  0  0  0  0
   43.4926   35.2775   43.9792 H   0  0  0  0  0  0  0  0  0  0  0  0
  1 10  1  0
  1  6  2  0
  2  1  1  0
  3  2  2  0
  3  4  1  0
  4  5  2  0
  5  6  1  0
  7  9  1  0
  7  3  1  0
  8  7  1  0
  8  9  1  0
 10 11  2  0
  2 12  1  0
  5 13  1  0
  7 14  1  0
  8 15  1  0
  8 16  1  0
  9 17  1  0
  9 18  1  0
 10 19  1  0
M  ISO  8  12  14  13  14  14  13  15  13  16  13  17  13  18  13  19   6
M  END
>  <minimizedAffinity>  (1) 
-3.9539752

>  <minimizedRMSD>  (1) 
1.68120432

$$$$
