
     RDKit          3D

 43 46  0  0  1  0  0  0  0  0999 V2000
   47.1090   33.8100   43.2300 C   0  0  0  0  0  0  0  0  0  0  0  0
   46.0630   34.3390   44.0300 C   0  0  0  0  0  0  0  0  0  0  0  0
   45.5720   33.6170   45.1240 C   0  0  0  0  0  0  0  0  0  0  0  0
   46.1600   32.4200   45.3410 N   0  0  0  0  0  0  0  0  0  0  0  0
   47.1450   31.9350   44.5780 C   0  0  0  0  0  0  0  0  0  0  0  0
   47.6070   32.6130   43.5490 N   0  0  0  0  0  0  0  0  0  0  0  0
   47.7490   30.6090   44.9030 C   0  0  2  0  0  0  0  0  0  0  0  0
   46.9620   29.4120   45.1790 C   0  0  0  0  0  0  0  0  0  0  0  0
   47.6550   30.0510   46.3090 C   0  0  2  0  0  0  0  0  0  0  0  0
   46.9030   30.6470   47.3650 C   0  0  0  0  0  0  0  0  0  0  0  0
   47.1230   31.7030   48.2970 C   0  0  0  0  0  0  0  0  0  0  0  0
   46.1350   31.9870   49.1950 C   0  0  0  0  0  0  0  0  0  0  0  0
   44.9190   31.2530   49.2070 C   0  0  0  0  0  0  0  0  0  0  0  0
   45.2240   30.0410   47.7890 S   0  0  0  0  0  0  0  0  0  0  0  0
   47.5770   34.6170   42.1100 C   0  0  0  0  0  0  0  0  0  0  0  0
   47.7110   34.0050   40.9320 C   0  0  0  0  0  0  0  0  0  0  0  0
   48.1790   34.7180   39.7220 C   0  0  0  0  0  0  0  0  0  0  0  0
   47.4930   32.9370   36.6690 C   0  0  1  0  0  0  0  0  0  0  0  0
   48.0060   34.2500   37.2710 C   0  0  0  0  0  0  0  0  0  0  0  0
   48.4970   33.7710   38.5810 C   0  0  2  0  0  0  0  0  0  0  0  0
   47.9940   32.5170   38.8140 O   0  0  0  0  0  0  0  0  0  0  0  0
   47.0260   32.2230   37.9150 C   0  0  0  0  0  0  0  0  0  0  0  0
   46.4490   33.1950   35.7810 O   0  0  0  0  0  0  0  0  0  0  0  0
   45.6351   35.3232   43.7887 H   0  0  0  0  0  0  0  0  0  0  0  0
   44.7624   33.9982   45.7637 H   0  0  0  0  0  0  0  0  0  0  0  0
   48.5496   30.8481   44.1875 H   0  0  0  0  0  0  0  0  0  0  0  0
   45.8646   29.4571   45.1186 H   0  0  0  0  0  0  0  0  0  0  0  0
   46.9520   28.3922   44.7667 H   0  0  0  0  0  0  0  0  0  0  0  0
   48.3994   29.7713   47.0690 H   0  0  0  0  0  0  0  0  0  0  0  0
   48.0635   32.2735   48.2926 H   0  0  0  0  0  0  0  0  0  0  0  0
   46.2832   32.7988   49.9224 H   0  0  0  0  0  0  0  0  0  0  0  0
   44.0414   31.3604   49.8614 H   0  0  0  0  0  0  0  0  0  0  0  0
   47.8098   35.6853   42.2309 H   0  0  0  0  0  0  0  0  0  0  0  0
   47.4656   32.9353   40.8574 H   0  0  0  0  0  0  0  0  0  0  0  0
   47.3921   35.4136   39.3951 H   0  0  0  0  0  0  0  0  0  0  0  0
   49.1047   35.2516   39.9835 H   0  0  0  0  0  0  0  0  0  0  0  0
   48.2240   32.3621   36.0816 H   0  0  0  0  0  0  0  0  0  0  0  0
   48.8166   34.6843   36.6674 H   0  0  0  0  0  0  0  0  0  0  0  0
   47.2559   35.0526   37.3278 H   0  0  0  0  0  0  0  0  0  0  0  0
   49.5954   33.7302   38.5370 H   0  0  0  0  0  0  0  0  0  0  0  0
   46.0490   32.6044   38.2468 H   0  0  0  0  0  0  0  0  0  0  0  0
   46.8839   31.1421   37.7683 H   0  0  0  0  0  0  0  0  0  0  0  0
   45.6250   33.3986   36.2906 H   0  0  0  0  0  0  0  0  0  0  0  0
  1  6  1  0
  1  2  2  0
  2  3  1  0
  3  4  2  0
  5  7  1  0
  5  4  1  0
  6  5  2  0
  7  8  1  0
  7  9  1  0
  8  9  1  0
  9 10  1  0
 10 14  1  0
 10 11  2  0
 11 12  1  0
 12 13  2  0
 14 13  1  0
 15  1  1  0
 16 15  2  0
 17 16  1  0
 18 19  1  0
 18 22  1  0
 19 20  1  0
 20 21  1  0
 20 17  1  0
 22 21  1  0
 23 18  1  0
  2 24  1  0
  3 25  1  0
  7 26  1  6
  8 27  1  0
  8 28  1  0
  9 29  1  1
 11 30  1  0
 12 31  1  0
 13 32  1  0
 15 33  1  0
 16 34  1  0
 17 35  1  0
 17 36  1  0
 18 37  1  6
 19 38  1  0
 19 39  1  0
 20 40  1  6
 22 41  1  0
 22 42  1  0
 23 43  1  0
M  ISO  8  24  14  25  14  26  13  27  13  28  13  29  13  30  14  31  14
M  ISO  8  32  14  35   8  36   8  37  13  38  13  39  13  40  13  41  13
M  ISO  2  42  13  43   3
M  END
>  <minimizedAffinity>  (1) 
-5.12368059

>  <minimizedRMSD>  (1) 
8.25172329

$$$$
