
     RDKit          3D

 18 19  0  0  0  0  0  0  0  0999 V2000
   46.0700   34.7440   43.4140 C   0  0  0  0  0  0  0  0  0  0  0  0
   46.2840   33.7770   44.4120 C   0  0  0  0  0  0  0  0  0  0  0  0
   45.5670   33.9480   45.5850 C   0  0  0  0  0  0  0  0  0  0  0  0
   44.7060   35.0110   45.7280 N   0  0  0  0  0  0  0  0  0  0  0  0
   44.5300   35.9220   44.7350 C   0  0  0  0  0  0  0  0  0  0  0  0
   45.2220   35.7730   43.5830 N   0  0  0  0  0  0  0  0  0  0  0  0
   45.6920   32.9700   46.7180 C   0  0  0  0  0  0  0  0  0  0  0  0
   46.1490   31.6010   46.2780 C   0  0  0  0  0  0  0  0  0  0  0  0
   47.0270   32.5510   47.1250 C   0  0  0  0  0  0  0  0  0  0  0  0
   47.0190   34.4900   41.9080 S   0  0  0  0  0  0  0  0  0  0  0  0
   46.9785   32.9358   44.2700 H   0  0  0  0  0  0  0  0  0  0  0  0
   43.8367   36.7659   44.8662 H   0  0  0  0  0  0  0  0  0  0  0  0
   44.8445   33.3757   47.2900 H   0  0  0  0  0  0  0  0  0  0  0  0
   45.7127   30.6961   46.7261 H   0  0  0  0  0  0  0  0  0  0  0  0
   46.2499   31.0653   45.3226 H   0  0  0  0  0  0  0  0  0  0  0  0
   47.9123   33.0262   46.6773 H   0  0  0  0  0  0  0  0  0  0  0  0
   47.5559   32.4692   48.0860 H   0  0  0  0  0  0  0  0  0  0  0  0
   48.3051   34.1458   42.2312 H   0  0  0  0  0  0  0  0  0  0  0  0
  1  6  2  0
  1  2  1  0
  2  3  2  0
  3  4  1  0
  3  7  1  0
  5  4  2  0
  6  5  1  0
  7  9  1  0
  8  7  1  0
  8  9  1  0
 10  1  1  0
  2 11  1  0
  5 12  1  0
  7 13  1  0
  8 14  1  0
  8 15  1  0
  9 16  1  0
  9 17  1  0
 10 18  1  0
M  ISO  8  11  14  12  14  13  13  14  13  15  13  16  13  17  13  18  11
M  END
>  <minimizedAffinity>  (1) 
-3.70533514

>  <minimizedRMSD>  (1) 
4.05421734

$$$$
