
     RDKit          3D

 21 22  0  0  1  0  0  0  0  0999 V2000
   45.6810   34.8200   44.1340 C   0  0  0  0  0  0  0  0  0  0  0  0
   46.5190   35.0080   43.0280 C   0  0  0  0  0  0  0  0  0  0  0  0
   47.5340   34.0700   42.8910 C   0  0  0  0  0  0  0  0  0  0  0  0
   47.6640   33.0580   43.7960 N   0  0  0  0  0  0  0  0  0  0  0  0
   46.8090   32.9330   44.8590 C   0  0  0  0  0  0  0  0  0  0  0  0
   45.8080   33.8320   45.0180 N   0  0  0  0  0  0  0  0  0  0  0  0
   48.5070   34.1460   41.7570 C   0  0  1  0  0  0  0  0  0  0  0  0
   48.7330   35.5430   41.2620 C   0  0  0  0  0  0  0  0  0  0  0  0
   49.8340   34.7300   41.9990 C   0  0  1  0  0  0  0  0  0  0  0  0
   50.1350   35.0460   43.3010 O   0  0  0  0  0  0  0  0  0  0  0  0
   44.5630   35.8050   44.3100 C   0  0  0  0  0  0  0  0  0  0  0  0
   44.0370   35.6140   45.5780 F   0  0  0  0  0  0  0  0  0  0  0  0
   43.5860   35.4980   43.3990 F   0  0  0  0  0  0  0  0  0  0  0  0
   45.0080   37.0990   44.2180 F   0  0  0  0  0  0  0  0  0  0  0  0
   46.3833   35.8382   42.3193 H   0  0  0  0  0  0  0  0  0  0  0  0
   46.9342   32.1095   45.5775 H   0  0  0  0  0  0  0  0  0  0  0  0
   48.2044   33.1865   41.3123 H   0  0  0  0  0  0  0  0  0  0  0  0
   48.8176   35.7449   40.1840 H   0  0  0  0  0  0  0  0  0  0  0  0
   48.2455   36.5198   41.3970 H   0  0  0  0  0  0  0  0  0  0  0  0
   50.8758   34.4637   41.7674 H   0  0  0  0  0  0  0  0  0  0  0  0
   49.5969   34.4811   43.9105 H   0  0  0  0  0  0  0  0  0  0  0  0
  1 11  1  0
  1  6  2  0
  2  1  1  0
  3  2  2  0
  3  4  1  0
  4  5  2  0
  5  6  1  0
  7  9  1  0
  7  3  1  0
  8  7  1  0
  8  9  1  0
  9 10  1  0
 11 12  1  0
 13 11  1  0
 14 11  1  0
  2 15  1  0
  5 16  1  0
  7 17  1  6
  8 18  1  0
  8 19  1  0
  9 20  1  6
 10 21  1  0
M  ISO  7  15  14  16  14  17  13  18  13  19  13  20  13  21   3
M  END
>  <minimizedAffinity>  (1) 
-5.35608006

>  <minimizedRMSD>  (1) 
0.221773818

$$$$
