
     RDKit          3D

 36 38  0  0  1  0  0  0  0  0999 V2000
   48.8770   33.8300   41.9830 C   0  0  1  0  0  0  0  0  0  0  0  0
   50.1050   34.5310   42.4640 C   0  0  0  0  0  0  0  0  0  0  0  0
   50.0260   32.9880   42.3590 C   0  0  2  0  0  0  0  0  0  0  0  0
   45.7170   34.8650   43.7370 C   0  0  0  0  0  0  0  0  0  0  0  0
   46.7400   34.8870   42.7830 C   0  0  0  0  0  0  0  0  0  0  0  0
   47.7190   33.9090   42.9360 C   0  0  0  0  0  0  0  0  0  0  0  0
   47.6330   33.0180   43.9640 N   0  0  0  0  0  0  0  0  0  0  0  0
   46.6220   33.0440   44.8570 C   0  0  0  0  0  0  0  0  0  0  0  0
   45.6510   33.9850   44.7360 N   0  0  0  0  0  0  0  0  0  0  0  0
   44.6370   35.8880   43.6040 C   0  0  0  0  0  0  0  0  0  0  0  0
   43.9760   35.9500   44.8240 F   0  0  0  0  0  0  0  0  0  0  0  0
   43.7460   35.4530   42.6610 F   0  0  0  0  0  0  0  0  0  0  0  0
   45.1550   37.1300   43.3420 F   0  0  0  0  0  0  0  0  0  0  0  0
   50.7050   32.2910   41.2160 C   0  0  0  0  0  0  0  0  0  0  0  0
   49.7540   31.8970   40.1160 C   0  0  0  0  0  0  0  0  0  0  0  0
   49.7290   30.4450   39.8200 C   0  0  0  0  0  0  0  0  0  0  0  0
   51.0490   29.7600   39.7300 C   0  0  0  0  0  0  0  0  0  0  0  0
   52.1740   30.4640   40.4200 C   0  0  0  0  0  0  0  0  0  0  0  0
   51.5850   31.1440   41.6530 C   0  0  0  0  0  0  0  0  0  0  0  0
   48.2553   33.8671   41.0763 H   0  0  0  0  0  0  0  0  0  0  0  0
   50.7284   35.1046   41.7623 H   0  0  0  0  0  0  0  0  0  0  0  0
   50.3410   35.2579   43.2552 H   0  0  0  0  0  0  0  0  0  0  0  0
   50.2313   32.1686   43.0635 H   0  0  0  0  0  0  0  0  0  0  0  0
   46.7689   35.6258   41.9685 H   0  0  0  0  0  0  0  0  0  0  0  0
   46.5848   32.3098   45.6753 H   0  0  0  0  0  0  0  0  0  0  0  0
   51.3814   33.0427   40.7830 H   0  0  0  0  0  0  0  0  0  0  0  0
   48.7401   32.2057   40.4106 H   0  0  0  0  0  0  0  0  0  0  0  0
   50.1058   32.3980   39.2021 H   0  0  0  0  0  0  0  0  0  0  0  0
   49.1507   29.9521   40.6154 H   0  0  0  0  0  0  0  0  0  0  0  0
   49.2895   30.3613   38.8151 H   0  0  0  0  0  0  0  0  0  0  0  0
   50.9461   28.7604   40.1775 H   0  0  0  0  0  0  0  0  0  0  0  0
   51.3106   29.7350   38.6618 H   0  0  0  0  0  0  0  0  0  0  0  0
   52.9455   29.7397   40.7203 H   0  0  0  0  0  0  0  0  0  0  0  0
   52.6446   31.2007   39.7524 H   0  0  0  0  0  0  0  0  0  0  0  0
   52.3991   31.5258   42.2866 H   0  0  0  0  0  0  0  0  0  0  0  0
   50.9885   30.4183   42.2252 H   0  0  0  0  0  0  0  0  0  0  0  0
  1  3  1  0
  1  2  1  0
  1  6  1  0
  3  2  1  0
  4  9  2  0
  5  6  2  0
  5  4  1  0
  6  7  1  0
  7  8  2  0
  9  8  1  0
 10  4  1  0
 10 11  1  0
 12 10  1  0
 13 10  1  0
 14 19  1  0
 14  3  1  0
 15 14  1  0
 16 15  1  0
 17 16  1  0
 17 18  1  0
 18 19  1  0
  1 20  1  6
  2 21  1  0
  2 22  1  0
  3 23  1  1
  5 24  1  0
  8 25  1  0
 14 26  1  0
 15 27  1  0
 15 28  1  0
 16 29  1  0
 16 30  1  0
 17 31  1  0
 17 32  1  0
 18 33  1  0
 18 34  1  0
 19 35  1  0
 19 36  1  0
M  ISO  8  20  13  21  13  22  13  23  13  24  14  25  14  26  13  27  13
M  ISO  8  28  13  29  13  30  13  31  13  32  13  33  13  34  13  35  13
M  ISO  1  36  13
M  END
>  <minimizedAffinity>  (1) 
-4.98280621

>  <minimizedRMSD>  (1) 
1.84020698

$$$$
