
     RDKit          3D

 24 25  0  0  1  0  0  0  0  0999 V2000
   45.6940   34.8050   43.7810 C   0  0  0  0  0  0  0  0  0  0  0  0
   46.7510   34.9440   42.8820 C   0  0  0  0  0  0  0  0  0  0  0  0
   47.7510   33.9830   42.9550 C   0  0  0  0  0  0  0  0  0  0  0  0
   47.6580   32.9810   43.8750 N   0  0  0  0  0  0  0  0  0  0  0  0
   46.6190   32.8820   44.7300 C   0  0  0  0  0  0  0  0  0  0  0  0
   45.6300   33.8040   44.6810 N   0  0  0  0  0  0  0  0  0  0  0  0
   48.9460   34.0300   42.0430 C   0  0  1  0  0  0  0  0  0  0  0  0
   49.8840   35.1570   42.3530 C   0  0  0  0  0  0  0  0  0  0  0  0
   50.2450   33.6480   42.5770 C   0  0  2  0  0  0  0  0  0  0  0  0
   51.3080   31.7780   41.2950 C   0  0  0  0  0  0  0  0  0  0  0  0
   50.3680   30.9590   41.4720 O   0  0  0  0  0  0  0  0  0  0  0  0
   51.3110   33.1010   41.8060 N   0  0  0  0  0  0  0  0  0  0  0  0
   44.5970   35.8030   43.7350 C   0  0  0  0  0  0  0  0  0  0  0  0
   43.9800   35.8090   44.9790 F   0  0  0  0  0  0  0  0  0  0  0  0
   43.6810   35.3840   42.8100 F   0  0  0  0  0  0  0  0  0  0  0  0
   45.0830   37.0630   43.4980 F   0  0  0  0  0  0  0  0  0  0  0  0
   46.7905   35.7689   42.1554 H   0  0  0  0  0  0  0  0  0  0  0  0
   46.5764   32.0599   45.4596 H   0  0  0  0  0  0  0  0  0  0  0  0
   48.4000   33.6843   41.1528 H   0  0  0  0  0  0  0  0  0  0  0  0
   50.3564   35.7305   41.5418 H   0  0  0  0  0  0  0  0  0  0  0  0
   49.8581   36.0699   42.9661 H   0  0  0  0  0  0  0  0  0  0  0  0
   50.5399   32.9858   43.4044 H   0  0  0  0  0  0  0  0  0  0  0  0
   52.1785   31.4477   40.7093 H   0  0  0  0  0  0  0  0  0  0  0  0
   52.1270   33.6980   41.6093 H   0  0  0  0  0  0  0  0  0  0  0  0
  1  6  2  0
  2  3  2  0
  2  1  1  0
  3  4  1  0
  4  5  2  0
  6  5  1  0
  7  8  1  0
  7  9  1  0
  7  3  1  0
  8  9  1  0
 10 11  2  0
 10 12  1  0
 12  9  1  0
 13  1  1  0
 13 14  1  0
 15 13  1  0
 16 13  1  0
  2 17  1  0
  5 18  1  0
  7 19  1  6
  8 20  1  0
  8 21  1  0
  9 22  1  1
 10 23  1  0
 12 24  1  0
M  ISO  7  17  14  18  14  19  13  20  13  21  13  22  13  23   6
M  END
>  <minimizedAffinity>  (1) 
-4.96893883

>  <minimizedRMSD>  (1) 
1.13823032

$$$$
