
     RDKit          3D

 27 29  0  0  1  0  0  0  0  0999 V2000
   45.6910   34.8490   43.7420 C   0  0  0  0  0  0  0  0  0  0  0  0
   46.7480   34.8910   42.8260 C   0  0  0  0  0  0  0  0  0  0  0  0
   47.7230   33.9170   43.0060 C   0  0  0  0  0  0  0  0  0  0  0  0
   47.6010   33.0090   44.0260 N   0  0  0  0  0  0  0  0  0  0  0  0
   46.5520   33.0240   44.8800 C   0  0  0  0  0  0  0  0  0  0  0  0
   45.5870   33.9600   44.7280 N   0  0  0  0  0  0  0  0  0  0  0  0
   48.9090   33.8480   42.1020 C   0  0  1  0  0  0  0  0  0  0  0  0
   49.9640   34.8670   42.4060 C   0  0  0  0  0  0  0  0  0  0  0  0
   50.1770   33.3430   42.6340 C   0  0  2  0  0  0  0  0  0  0  0  0
   51.0470   32.6040   41.6480 C   0  0  0  0  0  0  0  0  0  0  0  0
   50.4620   31.7270   40.6110 C   0  0  0  0  0  0  0  0  0  0  0  0
   51.3550   31.1780   41.7530 C   0  0  0  0  0  0  0  0  0  0  0  0
   44.6120   35.8760   43.5790 C   0  0  0  0  0  0  0  0  0  0  0  0
   43.9120   35.9450   44.7760 F   0  0  0  0  0  0  0  0  0  0  0  0
   43.7500   35.4350   42.6120 F   0  0  0  0  0  0  0  0  0  0  0  0
   45.1350   37.1200   43.3270 F   0  0  0  0  0  0  0  0  0  0  0  0
   46.8032   35.6400   42.0223 H   0  0  0  0  0  0  0  0  0  0  0  0
   46.4843   32.2827   45.6898 H   0  0  0  0  0  0  0  0  0  0  0  0
   48.3231   33.5596   41.2168 H   0  0  0  0  0  0  0  0  0  0  0  0
   50.4879   35.3871   41.5905 H   0  0  0  0  0  0  0  0  0  0  0  0
   50.0339   35.7782   43.0183 H   0  0  0  0  0  0  0  0  0  0  0  0
   50.4905   32.7285   43.4908 H   0  0  0  0  0  0  0  0  0  0  0  0
   51.6817   33.5022   41.6278 H   0  0  0  0  0  0  0  0  0  0  0  0
   49.3815   31.5208   40.6016 H   0  0  0  0  0  0  0  0  0  0  0  0
   50.4701   31.6874   39.5117 H   0  0  0  0  0  0  0  0  0  0  0  0
   52.3698   30.8134   41.5356 H   0  0  0  0  0  0  0  0  0  0  0  0
   51.2500   30.4070   42.5305 H   0  0  0  0  0  0  0  0  0  0  0  0
  1  6  2  0
  2  3  2  0
  2  1  1  0
  3  4  1  0
  4  5  2  0
  6  5  1  0
  7  8  1  0
  7  9  1  0
  7  3  1  0
  8  9  1  0
 10 12  1  0
 10  9  1  0
 11 10  1  0
 11 12  1  0
 13  1  1  0
 13 14  1  0
 15 13  1  0
 16 13  1  0
  2 17  1  0
  5 18  1  0
  7 19  1  6
  8 20  1  0
  8 21  1  0
  9 22  1  1
 10 23  1  0
 11 24  1  0
 11 25  1  0
 12 26  1  0
 12 27  1  0
M  ISO  8  17  14  18  14  19  13  20  13  21  13  22  13  23  13  24  13
M  ISO  3  25  13  26  13  27  13
M  END
>  <minimizedAffinity>  (1) 
-4.81651163

>  <minimizedRMSD>  (1) 
1.21203136

$$$$
