
     RDKit          3D

 51 54  0  0  1  0  0  0  0  0999 V2000
   49.1000   31.5130   40.9480 C   0  0  0  0  0  0  0  0  0  0  0  0
   50.4210   31.8410   40.5480 C   0  0  0  0  0  0  0  0  0  0  0  0
   50.8860   31.4860   39.2870 C   0  0  0  0  0  0  0  0  0  0  0  0
   50.0140   30.8240   38.4960 N   0  0  0  0  0  0  0  0  0  0  0  0
   48.7570   30.5160   38.8900 C   0  0  0  0  0  0  0  0  0  0  0  0
   48.3060   30.8510   40.0890 N   0  0  0  0  0  0  0  0  0  0  0  0
   47.8170   29.7880   37.9600 C   0  0  2  0  0  0  0  0  0  0  0  0
   48.0160   29.7830   36.5150 C   0  0  0  0  0  0  0  0  0  0  0  0
   46.9280   30.6240   37.0400 C   0  0  2  0  0  0  0  0  0  0  0  0
   46.9660   32.0470   37.1460 N   0  0  0  0  0  0  0  0  0  0  0  0
   47.3650   32.4200   38.4910 C   0  0  0  0  0  0  0  0  0  0  0  0
   47.4050   33.9240   38.6600 C   0  0  0  0  0  0  0  0  0  0  0  0
   48.4510   34.5270   37.7780 C   0  0  0  0  0  0  0  0  0  0  0  0
   49.0090   33.4280   36.9110 C   0  0  0  0  0  0  0  0  0  0  0  0
   47.9610   32.5970   36.2360 C   0  0  0  0  0  0  0  0  0  0  0  0
   48.6630   31.9190   42.2810 C   0  0  0  0  0  0  0  0  0  0  0  0
   47.8310   32.9480   42.3800 C   0  0  0  0  0  0  0  0  0  0  0  0
   47.3290   33.4400   43.6720 C   0  0  0  0  0  0  0  0  0  0  0  0
   44.6430   35.8430   43.9680 C   0  0  1  0  0  0  0  0  0  0  0  0
   45.7760   35.3210   43.0720 C   0  0  0  0  0  0  0  0  0  0  0  0
   45.8840   33.9270   43.5720 C   0  0  2  0  0  0  0  0  0  0  0  0
   45.2310   33.8280   44.7730 O   0  0  0  0  0  0  0  0  0  0  0  0
   44.9230   35.0680   45.2400 C   0  0  0  0  0  0  0  0  0  0  0  0
   44.7770   37.2100   44.1360 O   0  0  0  0  0  0  0  0  0  0  0  0
   51.0828   32.3807   41.2414 H   0  0  0  0  0  0  0  0  0  0  0  0
   51.9051   31.7301   38.9527 H   0  0  0  0  0  0  0  0  0  0  0  0
   47.6802   28.9974   38.7125 H   0  0  0  0  0  0  0  0  0  0  0  0
   47.7718   28.8792   35.9375 H   0  0  0  0  0  0  0  0  0  0  0  0
   48.8824   29.9779   35.8659 H   0  0  0  0  0  0  0  0  0  0  0  0
   45.8618   30.7201   36.7871 H   0  0  0  0  0  0  0  0  0  0  0  0
   46.6445   31.9987   39.2075 H   0  0  0  0  0  0  0  0  0  0  0  0
   48.3751   32.0248   38.6738 H   0  0  0  0  0  0  0  0  0  0  0  0
   46.4233   34.3435   38.3948 H   0  0  0  0  0  0  0  0  0  0  0  0
   47.6486   34.1560   39.7073 H   0  0  0  0  0  0  0  0  0  0  0  0
   48.0039   35.3103   37.1483 H   0  0  0  0  0  0  0  0  0  0  0  0
   49.2487   34.9829   38.3829 H   0  0  0  0  0  0  0  0  0  0  0  0
   49.6410   33.8855   36.1356 H   0  0  0  0  0  0  0  0  0  0  0  0
   49.5738   32.7546   37.5725 H   0  0  0  0  0  0  0  0  0  0  0  0
   47.4437   33.2260   35.4966 H   0  0  0  0  0  0  0  0  0  0  0  0
   48.4791   31.7426   35.7759 H   0  0  0  0  0  0  0  0  0  0  0  0
   49.0136   31.3869   43.1776 H   0  0  0  0  0  0  0  0  0  0  0  0
   47.5038   33.4531   41.4592 H   0  0  0  0  0  0  0  0  0  0  0  0
   47.3794   32.6237   44.4076 H   0  0  0  0  0  0  0  0  0  0  0  0
   47.9554   34.2900   43.9806 H   0  0  0  0  0  0  0  0  0  0  0  0
   43.6195   35.7058   43.5891 H   0  0  0  0  0  0  0  0  0  0  0  0
   46.7091   35.8827   43.2261 H   0  0  0  0  0  0  0  0  0  0  0  0
   45.5892   35.4110   41.9917 H   0  0  0  0  0  0  0  0  0  0  0  0
   45.4034   33.2628   42.8386 H   0  0  0  0  0  0  0  0  0  0  0  0
   45.7678   35.5048   45.7928 H   0  0  0  0  0  0  0  0  0  0  0  0
   44.0807   35.0712   45.9475 H   0  0  0  0  0  0  0  0  0  0  0  0
   44.7979   37.4232   45.1025 H   0  0  0  0  0  0  0  0  0  0  0  0
  1 16  1  0
  2  1  2  0
  3  2  1  0
  4  5  1  0
  4  3  2  0
  5  6  2  0
  6  1  1  0
  7  5  1  0
  8  9  1  0
  8  7  1  0
  9 10  1  0
  9  7  1  0
 10 11  1  0
 11 12  1  0
 13 12  1  0
 14 13  1  0
 15 14  1  0
 15 10  1  0
 16 17  2  0
 17 18  1  0
 19 24  1  0
 19 23  1  0
 20 21  1  0
 20 19  1  0
 21 18  1  0
 21 22  1  0
 22 23  1  0
  2 25  1  0
  3 26  1  0
  7 27  1  1
  8 28  1  0
  8 29  1  0
  9 30  1  6
 11 31  1  0
 11 32  1  0
 12 33  1  0
 12 34  1  0
 13 35  1  0
 13 36  1  0
 14 37  1  0
 14 38  1  0
 15 39  1  0
 15 40  1  0
 16 41  1  0
 17 42  1  0
 18 43  1  0
 18 44  1  0
 19 45  1  6
 20 46  1  0
 20 47  1  0
 21 48  1  6
 23 49  1  0
 23 50  1  0
 24 51  1  0
M  ISO  8  25  14  26  14  27  13  28  13  29  13  30  13  31  13  32  13
M  ISO  8  33  13  34  13  35  13  36  13  37  13  38  13  39  13  40  13
M  ISO  8  43   8  44   8  45  13  46  13  47  13  48  13  49  13  50  13
M  ISO  1  51   3
M  END
>  <minimizedAffinity>  (1) 
-4.71913099

>  <minimizedRMSD>  (1) 
2.08625436

$$$$
