
     RDKit          3D

 29 31  0  0  1  0  0  0  0  0999 V2000
   46.2690   31.4610   44.2650 C   0  0  1  0  0  0  0  0  0  0  0  0
   45.3110   32.4010   43.6420 C   0  0  0  0  0  0  0  0  0  0  0  0
   46.7000   32.8550   44.2430 C   0  0  2  0  0  0  0  0  0  0  0  0
   45.5880   30.7970   47.8970 C   0  0  0  0  0  0  0  0  0  0  0  0
   46.0490   31.4590   46.7730 C   0  0  0  0  0  0  0  0  0  0  0  0
   45.8110   30.8460   45.5480 C   0  0  0  0  0  0  0  0  0  0  0  0
   45.1590   29.6620   45.5000 N   0  0  0  0  0  0  0  0  0  0  0  0
   44.7240   29.0490   46.6350 C   0  0  0  0  0  0  0  0  0  0  0  0
   44.9460   29.6290   47.8350 N   0  0  0  0  0  0  0  0  0  0  0  0
   45.8210   31.4400   49.2330 C   0  0  0  0  0  0  0  0  0  0  0  0
   47.0100   30.9540   49.7260 F   0  0  0  0  0  0  0  0  0  0  0  0
   44.8070   31.0270   50.0700 F   0  0  0  0  0  0  0  0  0  0  0  0
   45.8870   32.8030   49.1240 F   0  0  0  0  0  0  0  0  0  0  0  0
   47.6780   33.2210   43.1790 C   0  0  0  0  0  0  0  0  0  0  0  0
   48.6240   32.3950   42.5780 C   0  0  0  0  0  0  0  0  0  0  0  0
   49.2380   33.2390   41.6820 C   0  0  0  0  0  0  0  0  0  0  0  0
   48.6660   34.5260   41.7560 C   0  0  0  0  0  0  0  0  0  0  0  0
   47.7490   34.4170   42.6740 O   0  0  0  0  0  0  0  0  0  0  0  0
   49.0020   35.7250   40.9940 C   0  0  0  0  0  0  0  0  0  0  0  0
   49.4240   36.7700   41.5630 O   0  0  0  0  0  0  0  0  0  0  0  0
   46.7809   30.5444   43.9367 H   0  0  0  0  0  0  0  0  0  0  0  0
   44.3708   32.6595   44.1512 H   0  0  0  0  0  0  0  0  0  0  0  0
   44.7964   32.4875   42.6736 H   0  0  0  0  0  0  0  0  0  0  0  0
   47.0660   33.5590   45.0048 H   0  0  0  0  0  0  0  0  0  0  0  0
   46.5770   32.4213   46.8449 H   0  0  0  0  0  0  0  0  0  0  0  0
   44.1946   28.0866   46.5755 H   0  0  0  0  0  0  0  0  0  0  0  0
   48.8294   31.3318   42.7715 H   0  0  0  0  0  0  0  0  0  0  0  0
   50.0566   32.9517   41.0057 H   0  0  0  0  0  0  0  0  0  0  0  0
   48.8849   35.7178   39.9003 H   0  0  0  0  0  0  0  0  0  0  0  0
  1  6  1  0
  2  3  1  0
  2  1  1  0
  3  1  1  0
  4 10  1  0
  5  4  2  0
  6  5  1  0
  7  6  2  0
  7  8  1  0
  8  9  2  0
  9  4  1  0
 10 11  1  0
 10 12  1  0
 13 10  1  0
 14  3  1  0
 15 14  2  0
 16 17  2  0
 16 15  1  0
 17 18  1  0
 18 14  1  0
 19 20  2  0
 19 17  1  0
  1 21  1  6
  2 22  1  0
  2 23  1  0
  3 24  1  1
  5 25  1  0
  8 26  1  0
 15 27  1  0
 16 28  1  0
 19 29  1  0
M  ISO  8  21  13  22  13  23  13  24  13  25  14  26  14  27  14  28  14
M  ISO  1  29   6
M  END
>  <minimizedAffinity>  (1) 
-4.70209455

>  <minimizedRMSD>  (1) 
1.70226121

$$$$
