
     RDKit          3D

 29 30  0  0  0  0  0  0  0  0999 V2000
   45.2870   33.5960   46.3690 C   0  0  0  0  0  0  0  0  0  0  0  0
   45.9930   33.2790   45.1720 C   0  0  0  0  0  0  0  0  0  0  0  0
   46.8720   32.2090   45.2340 C   0  0  0  0  0  0  0  0  0  0  0  0
   47.0220   31.5180   46.4110 N   0  0  0  0  0  0  0  0  0  0  0  0
   46.3150   31.8750   47.5180 C   0  0  0  0  0  0  0  0  0  0  0  0
   45.4620   32.9000   47.4890 N   0  0  0  0  0  0  0  0  0  0  0  0
   45.6700   34.1350   44.0540 C   0  0  0  0  0  0  0  0  0  0  0  0
   44.6450   33.4750   43.1540 C   0  0  0  0  0  0  0  0  0  0  0  0
   44.6040   34.2280   41.8170 C   0  0  0  0  0  0  0  0  0  0  0  0
   44.1500   35.6460   42.1320 C   0  0  0  0  0  0  0  0  0  0  0  0
   45.0760   36.2790   43.1340 C   0  0  0  0  0  0  0  0  0  0  0  0
   45.0630   35.4660   44.4360 C   0  0  0  0  0  0  0  0  0  0  0  0
   47.5740   31.9030   43.9970 C   0  0  0  0  0  0  0  0  0  0  0  0
   48.5610   30.9450   44.2580 F   0  0  0  0  0  0  0  0  0  0  0  0
   48.2650   33.0250   43.6160 F   0  0  0  0  0  0  0  0  0  0  0  0
   46.7750   31.3850   43.0230 F   0  0  0  0  0  0  0  0  0  0  0  0
   44.5791   34.4380   46.3665 H   0  0  0  0  0  0  0  0  0  0  0  0
   46.4493   31.3090   48.4516 H   0  0  0  0  0  0  0  0  0  0  0  0
   46.6399   34.3027   43.5629 H   0  0  0  0  0  0  0  0  0  0  0  0
   44.9270   32.4262   42.9793 H   0  0  0  0  0  0  0  0  0  0  0  0
   43.6541   33.5049   43.6307 H   0  0  0  0  0  0  0  0  0  0  0  0
   43.8927   33.7451   41.1308 H   0  0  0  0  0  0  0  0  0  0  0  0
   45.5900   34.2256   41.3293 H   0  0  0  0  0  0  0  0  0  0  0  0
   44.1532   36.2421   41.2075 H   0  0  0  0  0  0  0  0  0  0  0  0
   43.1348   35.6117   42.5541 H   0  0  0  0  0  0  0  0  0  0  0  0
   46.0973   36.2997   42.7260 H   0  0  0  0  0  0  0  0  0  0  0  0
   44.7406   37.3057   43.3422 H   0  0  0  0  0  0  0  0  0  0  0  0
   44.0342   35.3339   44.8022 H   0  0  0  0  0  0  0  0  0  0  0  0
   45.6172   35.9626   45.2461 H   0  0  0  0  0  0  0  0  0  0  0  0
  1  6  2  0
  2  3  2  0
  2  1  1  0
  3  4  1  0
  4  5  2  0
  6  5  1  0
  7 12  1  0
  7  2  1  0
  8  7  1  0
  9 10  1  0
  9  8  1  0
 10 11  1  0
 11 12  1  0
 13 14  1  0
 13  3  1  0
 15 13  1  0
 16 13  1  0
  1 17  1  0
  5 18  1  0
  7 19  1  0
  8 20  1  0
  8 21  1  0
  9 22  1  0
  9 23  1  0
 10 24  1  0
 10 25  1  0
 11 26  1  0
 11 27  1  0
 12 28  1  0
 12 29  1  0
M  ISO  8  17  14  18  14  19  13  20  13  21  13  22  13  23  13  24  13
M  ISO  5  25  13  26  13  27  13  28  13  29  13
M  END
>  <minimizedAffinity>  (1) 
-4.07252502

>  <minimizedRMSD>  (1) 
3.47344494

$$$$
