
     RDKit          3D

 17 17  0  0  0  0  0  0  0  0999 V2000
   44.6430   35.2380   44.9070 C   0  0  0  0  0  0  0  0  0  0  0  0
   45.2710   35.2910   43.6360 C   0  0  0  0  0  0  0  0  0  0  0  0
   46.3810   34.4410   43.4450 C   0  0  0  0  0  0  0  0  0  0  0  0
   46.7740   33.6400   44.4650 N   0  0  0  0  0  0  0  0  0  0  0  0
   46.1350   33.6330   45.6590 C   0  0  0  0  0  0  0  0  0  0  0  0
   45.0700   34.4330   45.8770 N   0  0  0  0  0  0  0  0  0  0  0  0
   43.6210   35.9080   41.8100 C   0  0  0  0  0  0  0  0  0  0  0  0
   42.9740   34.8380   41.6800 O   0  0  0  0  0  0  0  0  0  0  0  0
   44.7130   36.1870   42.7120 N   0  0  0  0  0  0  0  0  0  0  0  0
   46.9980   34.5240   42.1270 C   0  0  0  0  0  0  0  0  0  0  0  0
   48.0650   33.6250   42.0760 F   0  0  0  0  0  0  0  0  0  0  0  0
   47.5870   35.7840   42.0350 F   0  0  0  0  0  0  0  0  0  0  0  0
   46.1570   34.2570   41.0940 F   0  0  0  0  0  0  0  0  0  0  0  0
   43.7735   35.8843   45.0973 H   0  0  0  0  0  0  0  0  0  0  0  0
   46.4881   32.9675   46.4606 H   0  0  0  0  0  0  0  0  0  0  0  0
   43.3165   36.7364   41.1534 H   0  0  0  0  0  0  0  0  0  0  0  0
   45.1205   37.1322   42.6736 H   0  0  0  0  0  0  0  0  0  0  0  0
  1  6  2  0
  2  1  1  0
  3  2  2  0
  3  4  1  0
  4  5  2  0
  5  6  1  0
  7  9  1  0
  8  7  2  0
  9  2  1  0
 10  3  1  0
 11 10  1  0
 12 10  1  0
 13 10  1  0
  1 14  1  0
  5 15  1  0
  7 16  1  0
  9 17  1  0
M  ISO  3  14  14  15  14  16   6
M  END
>  <minimizedAffinity>  (1) 
-3.94846725

>  <minimizedRMSD>  (1) 
0.806063414

$$$$
