
     RDKit          3D

 40 42  0  0  1  0  0  0  0  0999 V2000
   49.4820   31.8150   41.9550 C   0  0  0  0  0  0  0  0  0  0  0  0
   50.8690   31.7970   42.2540 C   0  0  0  0  0  0  0  0  0  0  0  0
   51.8240   31.6200   41.2440 C   0  0  0  0  0  0  0  0  0  0  0  0
   51.3320   31.4710   39.9970 N   0  0  0  0  0  0  0  0  0  0  0  0
   50.0090   31.4880   39.7130 C   0  0  0  0  0  0  0  0  0  0  0  0
   49.1310   31.6570   40.6900 N   0  0  0  0  0  0  0  0  0  0  0  0
   49.5070   31.3320   38.3080 C   0  0  2  0  0  0  0  0  0  0  0  0
   50.4240   31.1840   37.1820 C   0  0  0  0  0  0  0  0  0  0  0  0
   49.7300   32.4970   37.3400 C   0  0  1  0  0  0  0  0  0  0  0  0
   47.9370   34.0710   36.7140 C   0  0  0  0  0  0  0  0  0  0  0  0
   48.3000   34.7180   37.7130 O   0  0  0  0  0  0  0  0  0  0  0  0
   48.6620   32.8750   36.4630 N   0  0  0  0  0  0  0  0  0  0  0  0
   48.5630   32.0080   43.0610 C   0  0  0  0  0  0  0  0  0  0  0  0
   48.0020   33.2130   43.1770 C   0  0  0  0  0  0  0  0  0  0  0  0
   47.0460   33.5260   44.2700 C   0  0  0  0  0  0  0  0  0  0  0  0
   44.7860   36.1890   43.4170 C   0  0  1  0  0  0  0  0  0  0  0  0
   45.9650   35.3390   42.9310 C   0  0  0  0  0  0  0  0  0  0  0  0
   45.7500   34.1100   43.7390 C   0  0  2  0  0  0  0  0  0  0  0  0
   44.8780   34.3930   44.7580 O   0  0  0  0  0  0  0  0  0  0  0  0
   44.6890   35.7410   44.8540 C   0  0  0  0  0  0  0  0  0  0  0  0
   45.0760   37.5320   43.2850 O   0  0  0  0  0  0  0  0  0  0  0  0
   51.1998   31.9240   43.2954 H   0  0  0  0  0  0  0  0  0  0  0  0
   52.9036   31.6036   41.4542 H   0  0  0  0  0  0  0  0  0  0  0  0
   48.6512   30.7425   38.6686 H   0  0  0  0  0  0  0  0  0  0  0  0
   50.1536   30.5241   36.3445 H   0  0  0  0  0  0  0  0  0  0  0  0
   51.4784   30.8842   37.0908 H   0  0  0  0  0  0  0  0  0  0  0  0
   50.0550   33.5459   37.4053 H   0  0  0  0  0  0  0  0  0  0  0  0
   47.1103   34.4027   36.0685 H   0  0  0  0  0  0  0  0  0  0  0  0
   48.4211   32.2832   35.6552 H   0  0  0  0  0  0  0  0  0  0  0  0
   48.3391   31.1983   43.7711 H   0  0  0  0  0  0  0  0  0  0  0  0
   48.2538   33.9943   42.4448 H   0  0  0  0  0  0  0  0  0  0  0  0
   46.8199   32.6008   44.8203 H   0  0  0  0  0  0  0  0  0  0  0  0
   47.5129   34.2745   44.9270 H   0  0  0  0  0  0  0  0  0  0  0  0
   43.8447   36.0642   42.8616 H   0  0  0  0  0  0  0  0  0  0  0  0
   45.9027   35.1339   41.8521 H   0  0  0  0  0  0  0  0  0  0  0  0
   46.9534   35.8060   43.0533 H   0  0  0  0  0  0  0  0  0  0  0  0
   45.3185   33.3382   43.0846 H   0  0  0  0  0  0  0  0  0  0  0  0
   45.4713   36.2090   45.4697 H   0  0  0  0  0  0  0  0  0  0  0  0
   43.7392   36.0168   45.3355 H   0  0  0  0  0  0  0  0  0  0  0  0
   45.1642   37.9403   44.1825 H   0  0  0  0  0  0  0  0  0  0  0  0
  1  2  2  0
  1 13  1  0
  3  2  1  0
  4  3  2  0
  5  4  1  0
  5  6  2  0
  6  1  1  0
  7  5  1  0
  8  9  1  0
  8  7  1  0
  9  7  1  0
 10 11  2  0
 12 10  1  0
 12  9  1  0
 13 14  2  0
 14 15  1  0
 16 20  1  0
 17 16  1  0
 17 18  1  0
 18 15  1  0
 18 19  1  0
 19 20  1  0
 21 16  1  0
  2 22  1  0
  3 23  1  0
  7 24  1  1
  8 25  1  0
  8 26  1  0
  9 27  1  1
 10 28  1  0
 12 29  1  0
 13 30  1  0
 14 31  1  0
 15 32  1  0
 15 33  1  0
 16 34  1  6
 17 35  1  0
 17 36  1  0
 18 37  1  6
 20 38  1  0
 20 39  1  0
 21 40  1  0
M  ISO  8  22  14  23  14  24  13  25  13  26  13  27  13  28   6  32   8
M  ISO  8  33   8  34  13  35  13  36  13  37  13  38  13  39  13  40   3
M  END
>  <minimizedAffinity>  (1) 
-4.63755751

>  <minimizedRMSD>  (1) 
0.372993827

$$$$
