
     RDKit          3D

 38 40  0  0  1  0  0  0  0  0999 V2000
   47.7440   32.2630   42.1100 C   0  0  0  0  0  0  0  0  0  0  0  0
   48.0310   33.2270   42.9720 C   0  0  0  0  0  0  0  0  0  0  0  0
   48.6890   31.9980   41.0290 C   0  0  0  0  0  0  0  0  0  0  0  0
   50.0670   31.9990   41.3500 C   0  0  0  0  0  0  0  0  0  0  0  0
   51.0230   31.7550   40.3570 C   0  0  0  0  0  0  0  0  0  0  0  0
   50.5390   31.5280   39.1160 N   0  0  0  0  0  0  0  0  0  0  0  0
   49.2160   31.5310   38.8290 C   0  0  0  0  0  0  0  0  0  0  0  0
   48.3150   31.7610   39.7650 N   0  0  0  0  0  0  0  0  0  0  0  0
   48.7350   31.2830   37.4230 C   0  0  2  0  0  0  0  0  0  0  0  0
   49.6100   31.4450   36.2670 C   0  0  0  0  0  0  0  0  0  0  0  0
   48.5770   32.4930   36.4970 C   0  0  2  0  0  0  0  0  0  0  0  0
   48.9010   33.7730   37.1520 C   0  0  0  0  0  0  0  0  0  0  0  0
   48.2130   34.7770   37.2300 O   0  0  0  0  0  0  0  0  0  0  0  0
   47.1490   33.5790   44.1000 C   0  0  0  0  0  0  0  0  0  0  0  0
   44.7590   36.1960   43.4430 C   0  0  1  0  0  0  0  0  0  0  0  0
   45.9540   35.4180   42.8830 C   0  0  0  0  0  0  0  0  0  0  0  0
   45.8220   34.1410   43.6260 C   0  0  2  0  0  0  0  0  0  0  0  0
   44.9490   34.3200   44.6690 O   0  0  0  0  0  0  0  0  0  0  0  0
   44.6930   35.6460   44.8450 C   0  0  0  0  0  0  0  0  0  0  0  0
   45.0120   37.5550   43.4100 O   0  0  0  0  0  0  0  0  0  0  0  0
   46.8178   31.6774   42.2061 H   0  0  0  0  0  0  0  0  0  0  0  0
   48.9674   33.7890   42.8407 H   0  0  0  0  0  0  0  0  0  0  0  0
   50.3884   32.1923   42.3841 H   0  0  0  0  0  0  0  0  0  0  0  0
   52.1015   31.7485   40.5735 H   0  0  0  0  0  0  0  0  0  0  0  0
   48.1029   30.4575   37.7822 H   0  0  0  0  0  0  0  0  0  0  0  0
   49.5092   30.7625   35.4103 H   0  0  0  0  0  0  0  0  0  0  0  0
   50.7018   31.4670   36.1346 H   0  0  0  0  0  0  0  0  0  0  0  0
   47.8272   32.9541   35.8373 H   0  0  0  0  0  0  0  0  0  0  0  0
   49.8893   33.8300   37.6316 H   0  0  0  0  0  0  0  0  0  0  0  0
   46.9593   32.6758   44.6985 H   0  0  0  0  0  0  0  0  0  0  0  0
   47.6527   34.3524   44.6984 H   0  0  0  0  0  0  0  0  0  0  0  0
   43.8158   36.0830   42.8883 H   0  0  0  0  0  0  0  0  0  0  0  0
   45.8661   35.2662   41.7971 H   0  0  0  0  0  0  0  0  0  0  0  0
   46.9248   35.9203   43.0065 H   0  0  0  0  0  0  0  0  0  0  0  0
   45.4243   33.3866   42.9313 H   0  0  0  0  0  0  0  0  0  0  0  0
   45.4532   36.1129   45.4885 H   0  0  0  0  0  0  0  0  0  0  0  0
   43.7297   35.8384   45.3400 H   0  0  0  0  0  0  0  0  0  0  0  0
   45.0765   37.9012   44.3352 H   0  0  0  0  0  0  0  0  0  0  0  0
  1  2  2  0
  2 14  1  0
  3  4  2  0
  3  1  1  0
  5  4  1  0
  6  5  2  0
  7  6  1  0
  7  8  2  0
  8  3  1  0
  9  7  1  0
 10 11  1  0
 10  9  1  0
 11 12  1  0
 11  9  1  0
 12 13  2  0
 15 19  1  0
 16 15  1  0
 16 17  1  0
 17 14  1  0
 17 18  1  0
 18 19  1  0
 20 15  1  0
  1 21  1  0
  2 22  1  0
  4 23  1  0
  5 24  1  0
  9 25  1  1
 10 26  1  0
 10 27  1  0
 11 28  1  6
 12 29  1  0
 14 30  1  0
 14 31  1  0
 15 32  1  6
 16 33  1  0
 16 34  1  0
 17 35  1  6
 19 36  1  0
 19 37  1  0
 20 38  1  0
M  ISO  8  23  14  24  14  25  13  26  13  27  13  28  13  29   6  30   8
M  ISO  8  31   8  32  13  33  13  34  13  35  13  36  13  37  13  38   3
M  END
>  <minimizedAffinity>  (1) 
-4.56186295

>  <minimizedRMSD>  (1) 
0.7902807

$$$$
