
     RDKit          3D

 28 28  0  0  0  0  0  0  0  0999 V2000
   44.7570   36.6030   43.5370 C   0  0  0  0  0  0  0  0  0  0  0  0
   44.8080   35.1120   45.4760 C   0  0  0  0  0  0  0  0  0  0  0  0
   45.2240   35.3890   44.1820 C   0  0  0  0  0  0  0  0  0  0  0  0
   46.0530   34.4730   43.5790 C   0  0  0  0  0  0  0  0  0  0  0  0
   46.4470   33.3510   44.2750 N   0  0  0  0  0  0  0  0  0  0  0  0
   46.0210   33.1130   45.5210 C   0  0  0  0  0  0  0  0  0  0  0  0
   45.2060   34.0230   46.1460 N   0  0  0  0  0  0  0  0  0  0  0  0
   46.4670   34.7890   42.2070 C   0  0  0  0  0  0  0  0  0  0  0  0
   47.1900   33.7190   41.6940 F   0  0  0  0  0  0  0  0  0  0  0  0
   47.3370   35.8450   42.3010 F   0  0  0  0  0  0  0  0  0  0  0  0
   45.4090   34.9590   41.3900 F   0  0  0  0  0  0  0  0  0  0  0  0
   44.8420   37.7410   44.4450 N   0  0  0  0  0  0  0  0  0  0  0  0
   45.6780   38.7220   43.7970 C   0  0  0  0  0  0  0  0  0  0  0  0
   45.2230   40.1350   44.0310 C   0  0  0  0  0  0  0  0  0  0  0  0
   44.9930   40.3820   45.8200 S   0  0  0  0  0  0  0  0  0  0  0  0
   44.2100   42.0140   46.0520 C   0  0  0  0  0  0  0  0  0  0  0  0
   44.4100   42.3800   47.3660 F   0  0  0  0  0  0  0  0  0  0  0  0
   42.8770   41.9830   45.7070 F   0  0  0  0  0  0  0  0  0  0  0  0
   44.8940   42.9490   45.2810 F   0  0  0  0  0  0  0  0  0  0  0  0
   45.3782   36.8019   42.6512 H   0  0  0  0  0  0  0  0  0  0  0  0
   43.7054   36.4638   43.2457 H   0  0  0  0  0  0  0  0  0  0  0  0
   44.1232   35.8156   45.9720 H   0  0  0  0  0  0  0  0  0  0  0  0
   46.3227   32.1922   46.0418 H   0  0  0  0  0  0  0  0  0  0  0  0
   43.9039   38.1304   44.6160 H   0  0  0  0  0  0  0  0  0  0  0  0
   45.6708   38.5272   42.7144 H   0  0  0  0  0  0  0  0  0  0  0  0
   46.6860   38.6277   44.2271 H   0  0  0  0  0  0  0  0  0  0  0  0
   45.9825   40.8361   43.6547 H   0  0  0  0  0  0  0  0  0  0  0  0
   44.2763   40.3176   43.5015 H   0  0  0  0  0  0  0  0  0  0  0  0
  1  3  1  0
  1 12  1  0
  2  7  2  0
  3  2  1  0
  4  3  2  0
  4  5  1  0
  5  6  2  0
  6  7  1  0
  8 10  1  0
  8  4  1  0
  9  8  1  0
 11  8  1  0
 13 14  1  0
 13 12  1  0
 14 15  1  0
 15 16  1  0
 16 17  1  0
 18 16  1  0
 19 16  1  0
  1 20  1  0
  1 21  1  0
  2 22  1  0
  6 23  1  0
 12 24  1  0
 13 25  1  0
 13 26  1  0
 14 27  1  0
 14 28  1  0
M  ISO  8  20   8  21   8  22  14  23  14  24   5  25   8  26   8  27   8
M  ISO  1  28   8
M  END
>  <minimizedAffinity>  (1) 
-4.22855377

>  <minimizedRMSD>  (1) 
1.11699259

$$$$
