
     RDKit          3D

 29 29  0  0  1  0  0  0  0  0999 V2000
   44.7860   36.1550   43.5840 C   0  0  0  0  0  0  0  0  0  0  0  0
   45.1190   34.5860   45.4310 C   0  0  0  0  0  0  0  0  0  0  0  0
   45.4660   35.0050   44.1550 C   0  0  0  0  0  0  0  0  0  0  0  0
   46.4270   34.2770   43.4950 C   0  0  0  0  0  0  0  0  0  0  0  0
   47.0260   33.2090   44.1270 N   0  0  0  0  0  0  0  0  0  0  0  0
   46.6620   32.8300   45.3580 C   0  0  0  0  0  0  0  0  0  0  0  0
   45.6910   33.5320   46.0250 N   0  0  0  0  0  0  0  0  0  0  0  0
   46.7550   34.7330   42.1390 C   0  0  0  0  0  0  0  0  0  0  0  0
   47.6120   33.8140   41.5470 F   0  0  0  0  0  0  0  0  0  0  0  0
   47.4680   35.8930   42.2870 F   0  0  0  0  0  0  0  0  0  0  0  0
   45.6630   34.7950   41.3530 F   0  0  0  0  0  0  0  0  0  0  0  0
   44.8040   37.2840   44.4960 N   0  0  0  0  0  0  0  0  0  0  0  0
   45.5390   38.3430   43.8450 C   0  0  0  0  0  0  0  0  0  0  0  0
   44.9220   39.6950   44.0240 C   0  0  2  0  0  0  0  0  0  0  0  0
   45.6220   40.5710   43.1790 O   0  0  0  0  0  0  0  0  0  0  0  0
   45.2400   40.2660   45.7180 S   0  0  0  0  0  0  0  0  0  0  0  0
   44.3440   41.8390   45.9450 C   0  0  0  0  0  0  0  0  0  0  0  0
   44.4670   42.1910   47.2720 F   0  0  0  0  0  0  0  0  0  0  0  0
   43.0320   41.7180   45.5470 F   0  0  0  0  0  0  0  0  0  0  0  0
   44.9910   42.8340   45.2210 F   0  0  0  0  0  0  0  0  0  0  0  0
   45.2897   36.4414   42.6490 H   0  0  0  0  0  0  0  0  0  0  0  0
   43.7384   35.8795   43.3927 H   0  0  0  0  0  0  0  0  0  0  0  0
   44.3425   35.1424   45.9765 H   0  0  0  0  0  0  0  0  0  0  0  0
   47.1393   31.9598   45.8323 H   0  0  0  0  0  0  0  0  0  0  0  0
   43.8418   37.5925   44.6956 H   0  0  0  0  0  0  0  0  0  0  0  0
   45.5878   38.1222   42.7685 H   0  0  0  0  0  0  0  0  0  0  0  0
   46.5357   38.3780   44.3091 H   0  0  0  0  0  0  0  0  0  0  0  0
   43.8428   39.6601   43.8137 H   0  0  0  0  0  0  0  0  0  0  0  0
   46.1372   41.2157   43.7258 H   0  0  0  0  0  0  0  0  0  0  0  0
  1  3  1  0
  1 12  1  0
  2  7  2  0
  3  2  1  0
  4  5  1  0
  4  3  2  0
  5  6  2  0
  6  7  1  0
  8 10  1  0
  8  4  1  0
  9  8  1  0
 11  8  1  0
 13 14  1  0
 13 12  1  0
 14 16  1  0
 15 14  1  0
 16 17  1  0
 17 18  1  0
 19 17  1  0
 20 17  1  0
  1 21  1  0
  1 22  1  0
  2 23  1  0
  6 24  1  0
 12 25  1  0
 13 26  1  0
 13 27  1  0
 14 28  1  6
 15 29  1  0
M  ISO  8  21   8  22   8  23  14  24  14  25   5  26   8  27   8  28   8
M  ISO  1  29   3
M  END
>  <minimizedAffinity>  (1) 
-4.06242704

>  <minimizedRMSD>  (1) 
0.480508506

$$$$
