
     RDKit          3D

 27 29  0  0  0  0  0  0  0  0999 V2000
   46.1590   33.2710   44.5990 C   0  0  0  0  0  0  0  0  0  0  0  0
   47.1990   33.8350   43.8730 C   0  0  0  0  0  0  0  0  0  0  0  0
   46.7160   34.2970   42.6890 C   0  0  0  0  0  0  0  0  0  0  0  0
   45.4020   34.0220   42.6850 N   0  0  0  0  0  0  0  0  0  0  0  0
   45.0800   33.4090   43.8320 N   0  0  0  0  0  0  0  0  0  0  0  0
   47.3340   31.1730   47.3610 C   0  0  0  0  0  0  0  0  0  0  0  0
   46.4870   31.5590   48.4180 C   0  0  0  0  0  0  0  0  0  0  0  0
   45.5160   32.5410   48.1700 C   0  0  0  0  0  0  0  0  0  0  0  0
   45.4810   33.0390   46.9140 N   0  0  0  0  0  0  0  0  0  0  0  0
   46.2830   32.6720   45.9120 C   0  0  0  0  0  0  0  0  0  0  0  0
   47.2290   31.7260   46.1250 N   0  0  0  0  0  0  0  0  0  0  0  0
   45.3700   32.8020   40.1370 F   0  0  0  0  0  0  0  0  0  0  0  0
   44.4270   33.7010   40.4550 C   0  0  0  0  0  0  0  0  0  0  0  0
   44.4480   34.2920   41.6970 C   0  0  0  0  0  0  0  0  0  0  0  0
   43.4740   35.2280   42.0400 C   0  0  0  0  0  0  0  0  0  0  0  0
   42.4720   35.5960   41.1790 C   0  0  0  0  0  0  0  0  0  0  0  0
   42.4710   34.9950   39.9490 C   0  0  0  0  0  0  0  0  0  0  0  0
   43.4230   34.0600   39.5690 C   0  0  0  0  0  0  0  0  0  0  0  0
   48.2465   33.8981   44.2029 H   0  0  0  0  0  0  0  0  0  0  0  0
   47.2879   34.7965   41.8931 H   0  0  0  0  0  0  0  0  0  0  0  0
   48.0999   30.4042   47.5411 H   0  0  0  0  0  0  0  0  0  0  0  0
   46.5844   31.1017   49.4137 H   0  0  0  0  0  0  0  0  0  0  0  0
   44.8236   32.8855   48.9522 H   0  0  0  0  0  0  0  0  0  0  0  0
   43.5103   35.6886   43.0383 H   0  0  0  0  0  0  0  0  0  0  0  0
   41.7087   36.3357   41.4620 H   0  0  0  0  0  0  0  0  0  0  0  0
   41.6820   35.2648   39.2316 H   0  0  0  0  0  0  0  0  0  0  0  0
   43.3813   33.6052   38.5683 H   0  0  0  0  0  0  0  0  0  0  0  0
  1 10  1  0
  2  1  1  0
  3  2  2  0
  4  3  1  0
  4  5  1  0
  5  1  2  0
  6  7  2  0
  8  7  1  0
  9  8  2  0
 10 11  2  0
 10  9  1  0
 11  6  1  0
 12 13  1  0
 13 14  2  0
 14 15  1  0
 14  4  1  0
 16 15  2  0
 17 16  1  0
 18 17  2  0
 18 13  1  0
  2 19  1  0
  3 20  1  0
  6 21  1  0
  7 22  1  0
  8 23  1  0
 15 24  1  0
 16 25  1  0
 17 26  1  0
 18 27  1  0
M  ISO  8  19  14  20  14  21  14  22  14  23  14  24  14  25  14  26  14
M  ISO  1  27  14
M  END
>  <minimizedAffinity>  (1) 
-4.59348869

>  <minimizedRMSD>  (1) 
7.66355371

$$$$
