
     RDKit          3D

 42 46  0  0  0  0  0  0  0  0999 V2000
   46.5320   33.0910   45.4570 F   0  0  0  0  0  0  0  0  0  0  0  0
   46.1120   31.9240   44.9590 C   0  0  0  0  0  0  0  0  0  0  0  0
   45.3970   31.9150   43.7960 C   0  0  0  0  0  0  0  0  0  0  0  0
   44.9530   30.6960   43.2680 C   0  0  0  0  0  0  0  0  0  0  0  0
   45.2080   29.4930   43.8760 C   0  0  0  0  0  0  0  0  0  0  0  0
   45.9230   29.5330   45.0360 C   0  0  0  0  0  0  0  0  0  0  0  0
   46.3810   30.7160   45.5920 C   0  0  0  0  0  0  0  0  0  0  0  0
   47.1430   30.6840   46.8400 C   0  0  0  0  0  0  0  0  0  0  0  0
   46.6950   31.3370   47.9720 C   0  0  0  0  0  0  0  0  0  0  0  0
   47.4510   31.2790   49.1370 C   0  0  0  0  0  0  0  0  0  0  0  0
   48.6230   30.5550   49.0750 C   0  0  0  0  0  0  0  0  0  0  0  0
   49.3510   30.5090   50.2250 N   0  0  0  0  0  0  0  0  0  0  0  0
   50.5160   29.8330   50.2910 C   0  0  0  0  0  0  0  0  0  0  0  0
   50.9930   29.1650   49.1660 C   0  0  0  0  0  0  0  0  0  0  0  0
   50.2780   29.1860   47.9630 C   0  0  0  0  0  0  0  0  0  0  0  0
   49.0920   29.8940   47.9560 C   0  0  0  0  0  0  0  0  0  0  0  0
   48.3280   29.9570   46.7950 C   0  0  0  0  0  0  0  0  0  0  0  0
   43.7920   34.3290   41.8030 C   0  0  0  0  0  0  0  0  0  0  0  0
   45.0050   34.9600   42.0570 C   0  0  0  0  0  0  0  0  0  0  0  0
   45.7760   34.1540   42.8340 C   0  0  0  0  0  0  0  0  0  0  0  0
   45.0550   33.0470   43.0560 N   0  0  0  0  0  0  0  0  0  0  0  0
   43.8730   33.1600   42.4370 N   0  0  0  0  0  0  0  0  0  0  0  0
   41.7520   35.3150   38.9370 C   0  0  0  0  0  0  0  0  0  0  0  0
   40.6430   35.9290   39.5350 C   0  0  0  0  0  0  0  0  0  0  0  0
   40.6110   35.9980   40.9430 C   0  0  0  0  0  0  0  0  0  0  0  0
   41.6630   35.4590   41.5860 N   0  0  0  0  0  0  0  0  0  0  0  0
   42.7130   34.8770   41.0110 C   0  0  0  0  0  0  0  0  0  0  0  0
   42.7800   34.7920   39.6570 N   0  0  0  0  0  0  0  0  0  0  0  0
   44.3780   30.7036   42.3303 H   0  0  0  0  0  0  0  0  0  0  0  0
   44.8532   28.5434   43.4488 H   0  0  0  0  0  0  0  0  0  0  0  0
   46.1453   28.5871   45.5515 H   0  0  0  0  0  0  0  0  0  0  0  0
   45.7488   31.8976   47.9516 H   0  0  0  0  0  0  0  0  0  0  0  0
   47.1311   31.7843   50.0602 H   0  0  0  0  0  0  0  0  0  0  0  0
   51.0877   29.8093   51.2305 H   0  0  0  0  0  0  0  0  0  0  0  0
   51.9434   28.6141   49.2236 H   0  0  0  0  0  0  0  0  0  0  0  0
   50.6430   28.6638   47.0663 H   0  0  0  0  0  0  0  0  0  0  0  0
   48.6498   29.4496   45.8736 H   0  0  0  0  0  0  0  0  0  0  0  0
   45.2949   35.9547   41.6874 H   0  0  0  0  0  0  0  0  0  0  0  0
   46.7889   34.3679   43.2059 H   0  0  0  0  0  0  0  0  0  0  0  0
   41.7924   35.2537   37.8395 H   0  0  0  0  0  0  0  0  0  0  0  0
   39.8254   36.3430   38.9266 H   0  0  0  0  0  0  0  0  0  0  0  0
   39.7749   36.4651   41.4841 H   0  0  0  0  0  0  0  0  0  0  0  0
  2  1  1  0
  2  7  2  0
  3  2  1  0
  4  3  2  0
  4  5  1  0
  5  6  2  0
  6  7  1  0
  7  8  1  0
  8  9  2  0
  9 10  1  0
 11 10  2  0
 11 12  1  0
 12 13  2  0
 14 13  1  0
 15 14  2  0
 16 15  1  0
 16 11  1  0
 17  8  1  0
 17 16  2  0
 18 19  1  0
 18 22  2  0
 19 20  2  0
 20 21  1  0
 21  3  1  0
 22 21  1  0
 23 24  2  0
 23 28  1  0
 24 25  1  0
 25 26  2  0
 27 26  1  0
 27 18  1  0
 28 27  2  0
  4 29  1  0
  5 30  1  0
  6 31  1  0
  9 32  1  0
 10 33  1  0
 13 34  1  0
 14 35  1  0
 15 36  1  0
 17 37  1  0
 19 38  1  0
 20 39  1  0
 23 40  1  0
 24 41  1  0
 25 42  1  0
M  ISO  8  29  14  30  14  31  14  32  14  33  14  34  14  35  14  36  14
M  ISO  6  37  14  38  14  39  14  40  14  41  14  42  14
M  END
>  <minimizedAffinity>  (1) 
-6.04779339

>  <minimizedRMSD>  (1) 
10.1138248

$$$$
