
     RDKit          3D

 28 30  0  0  0  0  0  0  0  0999 V2000
   45.8970   33.5750   44.2780 C   0  0  0  0  0  0  0  0  0  0  0  0
   46.8750   34.2570   43.5490 C   0  0  0  0  0  0  0  0  0  0  0  0
   46.3070   34.7070   42.3980 C   0  0  0  0  0  0  0  0  0  0  0  0
   45.0330   34.3190   42.4150 N   0  0  0  0  0  0  0  0  0  0  0  0
   44.7950   33.6380   43.5510 N   0  0  0  0  0  0  0  0  0  0  0  0
   45.1020   33.2770   39.7900 F   0  0  0  0  0  0  0  0  0  0  0  0
   44.0510   34.0300   40.1820 C   0  0  0  0  0  0  0  0  0  0  0  0
   44.0220   34.5340   41.4570 C   0  0  0  0  0  0  0  0  0  0  0  0
   42.9530   35.3090   41.8770 C   0  0  0  0  0  0  0  0  0  0  0  0
   41.8950   35.6010   41.0530 C   0  0  0  0  0  0  0  0  0  0  0  0
   41.9520   35.0820   39.7770 C   0  0  0  0  0  0  0  0  0  0  0  0
   43.0020   34.3070   39.3280 C   0  0  0  0  0  0  0  0  0  0  0  0
   42.9880   33.8190   38.0270 O   0  0  0  0  0  0  0  0  0  0  0  0
   47.2720   31.4330   46.9130 C   0  0  0  0  0  0  0  0  0  0  0  0
   46.5000   31.7860   48.0250 C   0  0  0  0  0  0  0  0  0  0  0  0
   45.5000   32.7680   47.8660 C   0  0  0  0  0  0  0  0  0  0  0  0
   45.3880   33.2790   46.6240 N   0  0  0  0  0  0  0  0  0  0  0  0
   46.1170   32.9470   45.5670 C   0  0  0  0  0  0  0  0  0  0  0  0
   47.0840   32.0060   45.7000 N   0  0  0  0  0  0  0  0  0  0  0  0
   47.9218   34.4042   43.8531 H   0  0  0  0  0  0  0  0  0  0  0  0
   46.8053   35.2822   41.6038 H   0  0  0  0  0  0  0  0  0  0  0  0
   42.9523   35.7030   42.9040 H   0  0  0  0  0  0  0  0  0  0  0  0
   41.0480   36.2155   41.3921 H   0  0  0  0  0  0  0  0  0  0  0  0
   41.1233   35.2952   39.0857 H   0  0  0  0  0  0  0  0  0  0  0  0
   43.7382   33.2625   37.6990 H   0  0  0  0  0  0  0  0  0  0  0  0
   48.0542   30.6681   47.0269 H   0  0  0  0  0  0  0  0  0  0  0  0
   46.6690   31.3085   49.0014 H   0  0  0  0  0  0  0  0  0  0  0  0
   44.8570   33.0937   48.6970 H   0  0  0  0  0  0  0  0  0  0  0  0
  1 18  1  0
  2  1  1  0
  3  4  1  0
  3  2  2  0
  4  5  1  0
  5  1  2  0
  6  7  1  0
  7  8  2  0
  8  9  1  0
  8  4  1  0
 10  9  2  0
 11 10  1  0
 12 11  2  0
 12  7  1  0
 13 12  1  0
 14 15  2  0
 16 15  1  0
 17 16  2  0
 18 19  2  0
 18 17  1  0
 19 14  1  0
  2 20  1  0
  3 21  1  0
  9 22  1  0
 10 23  1  0
 11 24  1  0
 13 25  1  0
 14 26  1  0
 15 27  1  0
 16 28  1  0
M  ISO  8  20  14  21  14  22  14  23  14  24  14  25   3  26  14  27  14
M  ISO  1  28  14
M  END
>  <minimizedAffinity>  (1) 
-4.93212271

>  <minimizedRMSD>  (1) 
0.536755383

$$$$
