
     RDKit          3D

 33 36  0  0  0  0  0  0  0  0999 V2000
   46.0690   32.5310   39.7960 F   0  0  0  0  0  0  0  0  0  0  0  0
   44.9860   33.3390   39.8680 C   0  0  0  0  0  0  0  0  0  0  0  0
   44.7660   34.0620   41.0050 C   0  0  0  0  0  0  0  0  0  0  0  0
   43.6510   34.8880   41.0660 C   0  0  0  0  0  0  0  0  0  0  0  0
   42.7550   35.0170   40.0450 C   0  0  0  0  0  0  0  0  0  0  0  0
   43.0110   34.2770   38.9280 C   0  0  0  0  0  0  0  0  0  0  0  0
   44.1000   33.4350   38.7940 C   0  0  0  0  0  0  0  0  0  0  0  0
   46.1850   33.4920   44.1680 C   0  0  0  0  0  0  0  0  0  0  0  0
   47.1610   34.2770   43.5900 C   0  0  0  0  0  0  0  0  0  0  0  0
   46.7780   34.6050   42.3280 C   0  0  0  0  0  0  0  0  0  0  0  0
   45.5910   34.0350   42.1280 N   0  0  0  0  0  0  0  0  0  0  0  0
   45.2340   33.3630   43.2420 N   0  0  0  0  0  0  0  0  0  0  0  0
   47.1690   31.4600   47.0590 C   0  0  0  0  0  0  0  0  0  0  0  0
   46.2900   31.9120   48.0570 C   0  0  0  0  0  0  0  0  0  0  0  0
   45.3560   32.9220   47.7310 C   0  0  0  0  0  0  0  0  0  0  0  0
   45.3940   33.3680   46.4670 N   0  0  0  0  0  0  0  0  0  0  0  0
   46.2280   32.9410   45.5140 C   0  0  0  0  0  0  0  0  0  0  0  0
   47.1270   31.9770   45.8060 N   0  0  0  0  0  0  0  0  0  0  0  0
   44.3490   32.6470   37.5690 C   0  0  0  0  0  0  0  0  0  0  0  0
   43.5680   31.5320   37.3130 C   0  0  0  0  0  0  0  0  0  0  0  0
   44.2190   30.8790   35.7200 S   0  0  0  0  0  0  0  0  0  0  0  0
   45.4880   32.2930   35.6780 C   0  0  0  0  0  0  0  0  0  0  0  0
   45.2450   32.8430   36.6240 N   0  0  0  0  0  0  0  0  0  0  0  0
   43.4815   35.4682   41.9850 H   0  0  0  0  0  0  0  0  0  0  0  0
   41.8788   35.6780   40.1183 H   0  0  0  0  0  0  0  0  0  0  0  0
   42.3099   34.3545   38.0840 H   0  0  0  0  0  0  0  0  0  0  0  0
   48.0991   34.5877   44.0732 H   0  0  0  0  0  0  0  0  0  0  0  0
   47.3395   35.2217   41.6108 H   0  0  0  0  0  0  0  0  0  0  0  0
   47.9021   30.6753   47.2973 H   0  0  0  0  0  0  0  0  0  0  0  0
   46.3276   31.4887   49.0716 H   0  0  0  0  0  0  0  0  0  0  0  0
   44.6422   33.3175   48.4686 H   0  0  0  0  0  0  0  0  0  0  0  0
   42.7461   31.1287   37.9228 H   0  0  0  0  0  0  0  0  0  0  0  0
   46.2580   32.5136   34.9241 H   0  0  0  0  0  0  0  0  0  0  0  0
  1  2  1  0
  2  3  2  0
  3  4  1  0
  3 11  1  0
  5  4  2  0
  6  5  1  0
  7  6  2  0
  7  2  1  0
  8 17  1  0
  9  8  1  0
 10  9  2  0
 11 10  1  0
 11 12  1  0
 12  8  2  0
 13 14  2  0
 15 14  1  0
 16 15  2  0
 17 18  2  0
 17 16  1  0
 18 13  1  0
 19  7  1  0
 20 19  2  0
 21 20  1  0
 22 21  1  0
 22 23  2  0
 23 19  1  0
  4 24  1  0
  5 25  1  0
  6 26  1  0
  9 27  1  0
 10 28  1  0
 13 29  1  0
 14 30  1  0
 15 31  1  0
 20 32  1  0
 22 33  1  0
M  ISO  8  24  14  25  14  26  14  27  14  28  14  29  14  30  14  31  14
M  ISO  2  32  14  33  14
M  END
>  <minimizedAffinity>  (1) 
-4.86630774

>  <minimizedRMSD>  (1) 
1.0745852

$$$$
