
     RDKit          3D

 50 54  0  0  0  0  0  0  0  0999 V2000
   46.2140   32.3690   44.8220 C   0  0  0  0  0  0  0  0  0  0  0  0
   47.2270   33.2200   44.4030 C   0  0  0  0  0  0  0  0  0  0  0  0
   46.7860   33.9430   43.3370 C   0  0  0  0  0  0  0  0  0  0  0  0
   45.5250   33.5410   43.1100 N   0  0  0  0  0  0  0  0  0  0  0  0
   45.2010   32.6110   43.9950 N   0  0  0  0  0  0  0  0  0  0  0  0
   44.4810   31.9270   41.0440 F   0  0  0  0  0  0  0  0  0  0  0  0
   44.1210   33.2080   41.1200 C   0  0  0  0  0  0  0  0  0  0  0  0
   44.6270   33.9810   42.1180 C   0  0  0  0  0  0  0  0  0  0  0  0
   44.2590   35.3360   42.2150 C   0  0  0  0  0  0  0  0  0  0  0  0
   43.3960   35.9100   41.3260 C   0  0  0  0  0  0  0  0  0  0  0  0
   42.8990   35.1050   40.3260 C   0  0  0  0  0  0  0  0  0  0  0  0
   43.2550   33.7580   40.2170 C   0  0  0  0  0  0  0  0  0  0  0  0
   42.6690   33.0040   39.1220 C   0  0  0  0  0  0  0  0  0  0  0  0
   43.2370   32.4220   38.0060 C   0  0  0  0  0  0  0  0  0  0  0  0
   42.2790   31.8240   37.2680 N   0  0  0  0  0  0  0  0  0  0  0  0
   41.1040   32.0210   37.9070 C   0  0  0  0  0  0  0  0  0  0  0  0
   41.3450   32.7300   39.0190 N   0  0  0  0  0  0  0  0  0  0  0  0
   47.3040   30.7910   47.9310 C   0  0  0  0  0  0  0  0  0  0  0  0
   46.4480   29.6620   48.0210 C   0  0  0  0  0  0  0  0  0  0  0  0
   45.5040   29.4660   46.9980 C   0  0  0  0  0  0  0  0  0  0  0  0
   45.4970   30.3830   46.0080 N   0  0  0  0  0  0  0  0  0  0  0  0
   46.3010   31.4470   45.9230 C   0  0  0  0  0  0  0  0  0  0  0  0
   47.2160   31.6510   46.8980 N   0  0  0  0  0  0  0  0  0  0  0  0
   44.6130   28.3050   47.0760 C   0  0  0  0  0  0  0  0  0  0  0  0
   44.9570   27.3550   48.1640 C   0  0  0  0  0  0  0  0  0  0  0  0
   45.8040   26.1930   47.7780 C   0  0  0  0  0  0  0  0  0  0  0  0
   46.5550   26.2960   46.4990 C   0  0  0  0  0  0  0  0  0  0  0  0
   45.8320   27.0160   45.4010 C   0  0  0  0  0  0  0  0  0  0  0  0
   44.4940   27.5390   45.7860 C   0  0  0  0  0  0  0  0  0  0  0  0
   48.2252   33.2978   44.8586 H   0  0  0  0  0  0  0  0  0  0  0  0
   47.3489   34.7029   42.7752 H   0  0  0  0  0  0  0  0  0  0  0  0
   44.6772   35.9482   43.0276 H   0  0  0  0  0  0  0  0  0  0  0  0
   43.1104   36.9693   41.4054 H   0  0  0  0  0  0  0  0  0  0  0  0
   42.2016   35.5343   39.5916 H   0  0  0  0  0  0  0  0  0  0  0  0
   44.3081   32.4428   37.7566 H   0  0  0  0  0  0  0  0  0  0  0  0
   42.4168   31.3135   36.3841 H   0  0  0  0  0  0  0  0  0  0  0  0
   40.1198   31.6615   37.5722 H   0  0  0  0  0  0  0  0  0  0  0  0
   48.0519   30.9665   48.7183 H   0  0  0  0  0  0  0  0  0  0  0  0
   46.5212   28.9615   48.8660 H   0  0  0  0  0  0  0  0  0  0  0  0
   43.6386   28.7619   47.3035 H   0  0  0  0  0  0  0  0  0  0  0  0
   45.4928   27.9168   48.9433 H   0  0  0  0  0  0  0  0  0  0  0  0
   43.9996   26.9251   48.4934 H   0  0  0  0  0  0  0  0  0  0  0  0
   46.5387   26.0373   48.5817 H   0  0  0  0  0  0  0  0  0  0  0  0
   45.0969   25.3641   47.6262 H   0  0  0  0  0  0  0  0  0  0  0  0
   47.4959   26.8304   46.6969 H   0  0  0  0  0  0  0  0  0  0  0  0
   46.7068   25.2655   46.1456 H   0  0  0  0  0  0  0  0  0  0  0  0
   45.6999   26.3183   44.5609 H   0  0  0  0  0  0  0  0  0  0  0  0
   46.4474   27.8897   45.1403 H   0  0  0  0  0  0  0  0  0  0  0  0
   44.1186   28.2058   44.9958 H   0  0  0  0  0  0  0  0  0  0  0  0
   43.7941   26.7007   45.9179 H   0  0  0  0  0  0  0  0  0  0  0  0
  1 22  1  0
  2  1  1  0
  3  2  2  0
  4  3  1  0
  4  5  1  0
  5  1  2  0
  6  7  1  0
  7  8  2  0
  8  9  1  0
  8  4  1  0
 10  9  2  0
 11 10  1  0
 12 11  2  0
 12  7  1  0
 13 12  1  0
 14 13  2  0
 15 16  1  0
 15 14  1  0
 16 17  2  0
 17 13  1  0
 18 19  2  0
 20 24  1  0
 20 19  1  0
 21 20  2  0
 22 21  1  0
 22 23  2  0
 23 18  1  0
 24 25  1  0
 26 25  1  0
 27 26  1  0
 28 29  1  0
 28 27  1  0
 29 24  1  0
  2 30  1  0
  3 31  1  0
  9 32  1  0
 10 33  1  0
 11 34  1  0
 14 35  1  0
 15 36  1  0
 16 37  1  0
 18 38  1  0
 19 39  1  0
 24 40  1  0
 25 41  1  0
 25 42  1  0
 26 43  1  0
 26 44  1  0
 27 45  1  0
 27 46  1  0
 28 47  1  0
 28 48  1  0
 29 49  1  0
 29 50  1  0
M  ISO  8  30  14  31  14  32  14  33  14  34  14  35  14  36   9  37  14
M  ISO  8  38  14  39  14  40  13  41  13  42  13  43  13  44  13  45  13
M  ISO  5  46  13  47  13  48  13  49  13  50  13
M  END
>  <minimizedAffinity>  (1) 
-5.23210812

>  <minimizedRMSD>  (1) 
3.0066855

$$$$
