
     RDKit          3D

 38 39  0  0  0  0  0  0  0  0999 V2000
   46.3480   31.4290   46.9010 C   0  0  0  0  0  0  0  0  0  0  0  0
   45.3640   31.5100   47.8540 C   0  0  0  0  0  0  0  0  0  0  0  0
   44.8600   30.4450   48.5280 C   0  0  0  0  0  0  0  0  0  0  0  0
   45.3660   29.2030   48.2400 C   0  0  0  0  0  0  0  0  0  0  0  0
   46.3590   29.0930   47.2850 C   0  0  0  0  0  0  0  0  0  0  0  0
   46.8500   30.2000   46.6160 C   0  0  0  0  0  0  0  0  0  0  0  0
   49.1210   29.4170   46.3440 C   0  0  0  0  0  0  0  0  0  0  0  0
   49.7290   29.5270   47.4710 O   0  0  0  0  0  0  0  0  0  0  0  0
   47.8590   29.7050   45.7280 N   0  0  0  0  0  0  0  0  0  0  0  0
   46.9630   32.4920   46.1070 C   0  0  0  0  0  0  0  0  0  0  0  0
   46.4300   32.5110   44.6970 C   0  0  0  0  0  0  0  0  0  0  0  0
   44.5790   35.6600   45.0890 C   0  0  0  0  0  0  0  0  0  0  0  0
   44.8330   36.3170   43.8580 C   0  0  0  0  0  0  0  0  0  0  0  0
   45.6420   35.6350   42.9380 C   0  0  0  0  0  0  0  0  0  0  0  0
   46.1300   34.4270   43.2460 N   0  0  0  0  0  0  0  0  0  0  0  0
   45.8520   33.8500   44.4380 C   0  0  0  0  0  0  0  0  0  0  0  0
   45.1020   34.4380   45.3380 N   0  0  0  0  0  0  0  0  0  0  0  0
   44.7820   28.1230   48.9940 N   0  0  0  0  0  0  0  0  0  0  0  0
   44.4210   26.5920   48.3380 S   0  0  0  0  0  0  0  0  0  0  0  0
   45.7140   25.8110   48.2140 O   0  0  0  0  0  0  0  0  0  0  0  0
   43.8630   26.7840   46.9790 O   0  0  0  0  0  0  0  0  0  0  0  0
   43.3630   25.7000   49.2750 O   0  0  0  0  0  0  0  0  0  0  0  0
   44.9563   32.5046   48.0874 H   0  0  0  0  0  0  0  0  0  0  0  0
   44.0698   30.5740   49.2823 H   0  0  0  0  0  0  0  0  0  0  0  0
   46.7695   28.0997   47.0508 H   0  0  0  0  0  0  0  0  0  0  0  0
   49.7904   28.9461   45.6090 H   0  0  0  0  0  0  0  0  0  0  0  0
   47.6903   29.5663   44.7214 H   0  0  0  0  0  0  0  0  0  0  0  0
   46.7502   33.4610   46.5821 H   0  0  0  0  0  0  0  0  0  0  0  0
   48.0462   32.3054   46.0628 H   0  0  0  0  0  0  0  0  0  0  0  0
   47.2473   32.3148   43.9874 H   0  0  0  0  0  0  0  0  0  0  0  0
   45.6609   31.7347   44.5713 H   0  0  0  0  0  0  0  0  0  0  0  0
   43.9508   36.1489   45.8482 H   0  0  0  0  0  0  0  0  0  0  0  0
   44.4166   37.3107   43.6364 H   0  0  0  0  0  0  0  0  0  0  0  0
   45.8753   36.0917   41.9649 H   0  0  0  0  0  0  0  0  0  0  0  0
   44.5701   28.2859   49.9887 H   0  0  0  0  0  0  0  0  0  0  0  0
   46.0609   25.6015   49.1173 H   0  0  0  0  0  0  0  0  0  0  0  0
   42.9291   27.1053   47.0481 H   0  0  0  0  0  0  0  0  0  0  0  0
   43.5542   25.8612   50.2329 H   0  0  0  0  0  0  0  0  0  0  0  0
  1  2  2  0
  2  3  1  0
  4  3  2  0
  4 18  1  0
  5  4  1  0
  6  1  1  0
  6  5  2  0
  7  8  2  0
  9  7  1  0
  9  6  1  0
 10  1  1  0
 11 10  1  0
 12 17  2  0
 13 12  1  0
 14 15  1  0
 14 13  2  0
 15 16  2  0
 16 11  1  0
 16 17  1  0
 19 18  1  0
 19 22  1  0
 20 19  1  0
 21 19  1  0
  2 23  1  0
  3 24  1  0
  5 25  1  0
  7 26  1  0
  9 27  1  0
 10 28  1  0
 10 29  1  0
 11 30  1  0
 11 31  1  0
 12 32  1  0
 13 33  1  0
 14 34  1  0
 18 35  1  0
 20 36  1  0
 21 37  1  0
 22 38  1  0
M  ISO  8  23  14  24  14  25  14  26   6  28   8  29   8  30   8  31   8
M  ISO  6  32  14  33  14  34  14  36   3  37   3  38   3
M  END
>  <minimizedAffinity>  (1) 
-4.87198782

>  <minimizedRMSD>  (1) 
1.28694308

$$$$
