
     RDKit          3D

 14 14  0  0  0  0  0  0  0  0999 V2000
   45.7650   34.1180   45.2440 C   0  0  0  0  0  0  0  0  0  0  0  0
   46.5460   34.0650   44.0930 C   0  0  0  0  0  0  0  0  0  0  0  0
   46.2680   34.9590   43.0500 C   0  0  0  0  0  0  0  0  0  0  0  0
   45.2350   35.8360   43.2370 N   0  0  0  0  0  0  0  0  0  0  0  0
   44.5070   35.8510   44.3670 C   0  0  0  0  0  0  0  0  0  0  0  0
   44.7700   34.9960   45.3690 N   0  0  0  0  0  0  0  0  0  0  0  0
   47.5910   33.1010   44.0290 N   0  0  0  0  0  0  0  0  0  0  0  0
   46.0490   33.1900   46.3300 C   0  0  0  0  0  0  0  0  0  0  0  0
   45.8740   31.9550   46.2270 O   0  0  0  0  0  0  0  0  0  0  0  0
   46.8557   34.9556   42.1202 H   0  0  0  0  0  0  0  0  0  0  0  0
   43.6844   36.5736   44.4726 H   0  0  0  0  0  0  0  0  0  0  0  0
   48.1844   33.0397   43.1893 H   0  0  0  0  0  0  0  0  0  0  0  0
   47.7539   32.4646   44.8224 H   0  0  0  0  0  0  0  0  0  0  0  0
   46.4330   33.5910   47.2796 H   0  0  0  0  0  0  0  0  0  0  0  0
  1  6  2  0
  1  8  1  0
  2  1  1  0
  3  4  1  0
  3  2  2  0
  4  5  2  0
  5  6  1  0
  7  2  1  0
  9  8  2  0
  3 10  1  0
  5 11  1  0
  7 12  1  0
  7 13  1  0
  8 14  1  0
M  ISO  3  10  14  11  14  14   6
M  END
>  <minimizedAffinity>  (1) 
-3.21270514

>  <minimizedRMSD>  (1) 
3.65349746

$$$$
