
     RDKit          3D

 30 31  0  0  0  0  0  0  0  0999 V2000
   46.5820   32.7200   45.0730 C   0  0  0  0  0  0  0  0  0  0  0  0
   44.5640   35.7860   44.5970 C   0  0  0  0  0  0  0  0  0  0  0  0
   45.0120   36.2200   43.3160 C   0  0  0  0  0  0  0  0  0  0  0  0
   45.9750   35.4410   42.6950 C   0  0  0  0  0  0  0  0  0  0  0  0
   46.4240   34.3350   43.3320 N   0  0  0  0  0  0  0  0  0  0  0  0
   45.9700   33.9600   44.5480 C   0  0  0  0  0  0  0  0  0  0  0  0
   45.0470   34.6830   45.1710 N   0  0  0  0  0  0  0  0  0  0  0  0
   46.6350   32.9080   46.5780 C   0  0  0  0  0  0  0  0  0  0  0  0
   45.8060   31.9770   47.3040 N   0  0  0  0  0  0  0  0  0  0  0  0
   46.1830   30.5940   47.0300 C   0  0  0  0  0  0  0  0  0  0  0  0
   45.0570   29.7820   47.6920 C   0  0  0  0  0  0  0  0  0  0  0  0
   45.2170   29.8600   49.1320 N   0  0  0  0  0  0  0  0  0  0  0  0
   45.1630   31.2280   49.5450 C   0  0  0  0  0  0  0  0  0  0  0  0
   46.0280   32.1230   48.7390 C   0  0  0  0  0  0  0  0  0  0  0  0
   47.5949   32.5872   44.6651 H   0  0  0  0  0  0  0  0  0  0  0  0
   46.0063   31.8262   44.7906 H   0  0  0  0  0  0  0  0  0  0  0  0
   43.8006   36.3754   45.1260 H   0  0  0  0  0  0  0  0  0  0  0  0
   44.6128   37.1293   42.8430 H   0  0  0  0  0  0  0  0  0  0  0  0
   46.3664   35.7161   41.7045 H   0  0  0  0  0  0  0  0  0  0  0  0
   47.6761   32.7782   46.9086 H   0  0  0  0  0  0  0  0  0  0  0  0
   46.2520   33.9168   46.7916 H   0  0  0  0  0  0  0  0  0  0  0  0
   46.2220   30.4034   45.9473 H   0  0  0  0  0  0  0  0  0  0  0  0
   47.1815   30.3363   47.4128 H   0  0  0  0  0  0  0  0  0  0  0  0
   44.0806   30.1989   47.4042 H   0  0  0  0  0  0  0  0  0  0  0  0
   45.1064   28.7332   47.3640 H   0  0  0  0  0  0  0  0  0  0  0  0
   44.4601   29.3330   49.5905 H   0  0  0  0  0  0  0  0  0  0  0  0
   44.1236   31.5773   49.4582 H   0  0  0  0  0  0  0  0  0  0  0  0
   45.5311   31.2684   50.5808 H   0  0  0  0  0  0  0  0  0  0  0  0
   47.0798   31.8873   48.9583 H   0  0  0  0  0  0  0  0  0  0  0  0
   45.7787   33.1594   49.0104 H   0  0  0  0  0  0  0  0  0  0  0  0
  1  8  1  0
  2  7  2  0
  3  2  1  0
  4  3  2  0
  4  5  1  0
  5  6  2  0
  6  1  1  0
  6  7  1  0
  8  9  1  0
  9 14  1  0
 10  9  1  0
 10 11  1  0
 11 12  1  0
 12 13  1  0
 14 13  1  0
  1 15  1  0
  1 16  1  0
  2 17  1  0
  3 18  1  0
  4 19  1  0
  8 20  1  0
  8 21  1  0
 10 22  1  0
 10 23  1  0
 11 24  1  0
 11 25  1  0
 12 26  1  0
 13 27  1  0
 13 28  1  0
 14 29  1  0
 14 30  1  0
M  ISO  8  15   8  16   8  17  14  18  14  19  14  20   8  21   8  22  13
M  ISO  8  23  13  24  13  25  13  26   5  27  13  28  13  29  13  30  13
M  END
>  <minimizedAffinity>  (1) 
-4.67333031

>  <minimizedRMSD>  (1) 
1.52450848

$$$$
