
     RDKit          3D

 29 30  0  0  0  0  0  0  0  0999 V2000
   45.5670   34.5670   44.2390 C   0  0  0  0  0  0  0  0  0  0  0  0
   45.2700   34.3780   45.5770 C   0  0  0  0  0  0  0  0  0  0  0  0
   46.0060   33.3880   46.2290 C   0  0  0  0  0  0  0  0  0  0  0  0
   46.9290   32.7080   45.5240 N   0  0  0  0  0  0  0  0  0  0  0  0
   47.1870   32.9250   44.2150 C   0  0  0  0  0  0  0  0  0  0  0  0
   46.4920   33.8750   43.5570 N   0  0  0  0  0  0  0  0  0  0  0  0
   44.0820   34.8420   42.4400 C   0  0  0  0  0  0  0  0  0  0  0  0
   44.1460   33.5770   42.5940 O   0  0  0  0  0  0  0  0  0  0  0  0
   44.9180   35.5430   43.3810 N   0  0  0  0  0  0  0  0  0  0  0  0
   43.2650   35.5530   41.4370 C   0  0  0  0  0  0  0  0  0  0  0  0
   43.3800   34.7980   40.1340 C   0  0  0  0  0  0  0  0  0  0  0  0
   42.3830   33.6750   40.2990 C   0  0  0  0  0  0  0  0  0  0  0  0
   41.2830   34.2030   41.1940 C   0  0  0  0  0  0  0  0  0  0  0  0
   41.8130   35.4920   41.7980 C   0  0  0  0  0  0  0  0  0  0  0  0
   44.2680   35.1890   46.1470 N   0  0  0  0  0  0  0  0  0  0  0  0
   45.8360   33.1686   47.2934 H   0  0  0  0  0  0  0  0  0  0  0  0
   47.9542   32.3341   43.6931 H   0  0  0  0  0  0  0  0  0  0  0  0
   45.0357   36.5648   43.4361 H   0  0  0  0  0  0  0  0  0  0  0  0
   43.6117   36.5953   41.3781 H   0  0  0  0  0  0  0  0  0  0  0  0
   44.3978   34.4049   39.9940 H   0  0  0  0  0  0  0  0  0  0  0  0
   43.1825   35.4252   39.2522 H   0  0  0  0  0  0  0  0  0  0  0  0
   41.9709   33.3863   39.3208 H   0  0  0  0  0  0  0  0  0  0  0  0
   42.8572   32.7839   40.7361 H   0  0  0  0  0  0  0  0  0  0  0  0
   40.3750   34.4022   40.6059 H   0  0  0  0  0  0  0  0  0  0  0  0
   41.0150   33.4746   41.9735 H   0  0  0  0  0  0  0  0  0  0  0  0
   41.6915   35.4796   42.8912 H   0  0  0  0  0  0  0  0  0  0  0  0
   41.2671   36.3682   41.4181 H   0  0  0  0  0  0  0  0  0  0  0  0
   44.0187   35.0780   47.1402 H   0  0  0  0  0  0  0  0  0  0  0  0
   43.7850   35.8926   45.5703 H   0  0  0  0  0  0  0  0  0  0  0  0
  1  2  2  0
  2 15  1  0
  2  3  1  0
  4  3  2  0
  5  4  1  0
  6  5  2  0
  6  1  1  0
  7  8  2  0
  7  9  1  0
  9  1  1  0
 10 14  1  0
 10  7  1  0
 11 12  1  0
 11 10  1  0
 12 13  1  0
 13 14  1  0
  3 16  1  0
  5 17  1  0
  9 18  1  0
 10 19  1  0
 11 20  1  0
 11 21  1  0
 12 22  1  0
 12 23  1  0
 13 24  1  0
 13 25  1  0
 14 26  1  0
 14 27  1  0
 15 28  1  0
 15 29  1  0
M  ISO  8  16  14  17  14  19  13  20  13  21  13  22  13  23  13  24  13
M  ISO  3  25  13  26  13  27  13
M  END
>  <minimizedAffinity>  (1) 
-4.77825165

>  <minimizedRMSD>  (1) 
1.3517673

$$$$
