
     RDKit          3D

 22 23  0  0  0  0  0  0  0  0999 V2000
   45.6210   34.0930   44.4890 C   0  0  0  0  0  0  0  0  0  0  0  0
   45.3400   34.1190   45.8420 C   0  0  0  0  0  0  0  0  0  0  0  0
   46.0790   33.2540   46.6400 C   0  0  0  0  0  0  0  0  0  0  0  0
   46.9940   32.4720   46.0530 N   0  0  0  0  0  0  0  0  0  0  0  0
   47.2430   32.4730   44.7290 C   0  0  0  0  0  0  0  0  0  0  0  0
   46.5460   33.3000   43.9120 N   0  0  0  0  0  0  0  0  0  0  0  0
   44.1540   34.0620   42.6560 C   0  0  0  0  0  0  0  0  0  0  0  0
   44.2370   32.8440   42.9980 O   0  0  0  0  0  0  0  0  0  0  0  0
   44.9650   34.9150   43.4830 N   0  0  0  0  0  0  0  0  0  0  0  0
   43.3510   34.6070   41.5660 C   0  0  0  0  0  0  0  0  0  0  0  0
   42.1030   35.0960   41.4880 N   0  0  0  0  0  0  0  0  0  0  0  0
   41.8490   35.4780   40.2040 C   0  0  0  0  0  0  0  0  0  0  0  0
   42.9720   35.2110   39.4980 N   0  0  0  0  0  0  0  0  0  0  0  0
   43.8710   34.6870   40.3260 N   0  0  0  0  0  0  0  0  0  0  0  0
   44.3320   35.0200   46.2710 N   0  0  0  0  0  0  0  0  0  0  0  0
   45.9164   33.2127   47.7271 H   0  0  0  0  0  0  0  0  0  0  0  0
   48.0103   31.8042   44.3119 H   0  0  0  0  0  0  0  0  0  0  0  0
   45.0646   35.9350   43.3805 H   0  0  0  0  0  0  0  0  0  0  0  0
   40.9165   35.9161   39.8187 H   0  0  0  0  0  0  0  0  0  0  0  0
   43.1073   35.3840   38.4917 H   0  0  0  0  0  0  0  0  0  0  0  0
   44.0843   35.0784   47.2691 H   0  0  0  0  0  0  0  0  0  0  0  0
   43.8477   35.6158   45.5845 H   0  0  0  0  0  0  0  0  0  0  0  0
  1  2  2  0
  2 15  1  0
  2  3  1  0
  4  3  2  0
  5  4  1  0
  6  1  1  0
  6  5  2  0
  7  8  2  0
  7  9  1  0
  9  1  1  0
 10  7  1  0
 11 10  1  0
 12 11  2  0
 13 12  1  0
 13 14  1  0
 14 10  2  0
  3 16  1  0
  5 17  1  0
  9 18  1  0
 12 19  1  0
 13 20  1  0
 15 21  1  0
 15 22  1  0
M  ISO  4  16  14  17  14  19  14  20   9
M  END
>  <minimizedAffinity>  (1) 
-4.3911252

>  <minimizedRMSD>  (1) 
1.72904468

$$$$
