
     RDKit          3D

 38 41  0  0  0  0  0  0  0  0999 V2000
   45.7540   33.6030   42.8420 C   0  0  0  0  0  0  0  0  0  0  0  0
   46.0190   32.7190   41.8160 C   0  0  0  0  0  0  0  0  0  0  0  0
   45.1160   32.5860   40.7830 C   0  0  0  0  0  0  0  0  0  0  0  0
   43.9340   33.2920   40.6950 C   0  0  0  0  0  0  0  0  0  0  0  0
   43.6960   34.1640   41.7260 C   0  0  0  0  0  0  0  0  0  0  0  0
   44.5720   34.3090   42.7510 C   0  0  0  0  0  0  0  0  0  0  0  0
   42.1880   35.1080   41.6790 S   0  0  0  0  0  0  0  0  0  0  0  0
   41.3230   34.6420   40.2020 C   0  0  0  0  0  0  0  0  0  0  0  0
   40.1250   35.2140   39.9060 C   0  0  0  0  0  0  0  0  0  0  0  0
   39.4030   34.8970   38.7770 C   0  0  0  0  0  0  0  0  0  0  0  0
   39.9470   33.9570   37.9320 C   0  0  0  0  0  0  0  0  0  0  0  0
   41.1570   33.4000   38.2610 C   0  0  0  0  0  0  0  0  0  0  0  0
   41.8980   33.7010   39.3850 C   0  0  0  0  0  0  0  0  0  0  0  0
   43.1290   33.0270   39.5650 N   0  0  0  0  0  0  0  0  0  0  0  0
   46.6440   33.7610   43.8980 O   0  0  0  0  0  0  0  0  0  0  0  0
   46.4450   33.0280   45.0740 C   0  0  0  0  0  0  0  0  0  0  0  0
   45.7760   31.9460   45.1920 O   0  0  0  0  0  0  0  0  0  0  0  0
   47.0090   33.4550   46.3190 N   0  0  0  0  0  0  0  0  0  0  0  0
   46.6230   32.5100   47.3590 C   0  0  0  0  0  0  0  0  0  0  0  0
   45.4470   32.5690   48.0650 C   0  0  0  0  0  0  0  0  0  0  0  0
   45.2660   31.5670   49.0150 C   0  0  0  0  0  0  0  0  0  0  0  0
   46.2340   30.6480   49.1620 N   0  0  0  0  0  0  0  0  0  0  0  0
   47.3670   30.6280   48.4530 C   0  0  0  0  0  0  0  0  0  0  0  0
   47.5930   31.5790   47.5150 N   0  0  0  0  0  0  0  0  0  0  0  0
   44.5530   33.6150   47.7620 N   0  0  0  0  0  0  0  0  0  0  0  0
   46.9445   32.1245   41.8224 H   0  0  0  0  0  0  0  0  0  0  0  0
   45.3524   31.8731   39.9794 H   0  0  0  0  0  0  0  0  0  0  0  0
   44.3281   35.0251   43.5496 H   0  0  0  0  0  0  0  0  0  0  0  0
   39.7146   35.9631   40.5992 H   0  0  0  0  0  0  0  0  0  0  0  0
   38.4355   35.3735   38.5605 H   0  0  0  0  0  0  0  0  0  0  0  0
   39.4228   33.6584   37.0122 H   0  0  0  0  0  0  0  0  0  0  0  0
   41.5710   32.6505   37.5705 H   0  0  0  0  0  0  0  0  0  0  0  0
   43.4407   32.3374   38.8663 H   0  0  0  0  0  0  0  0  0  0  0  0
   47.5920   34.2928   46.4569 H   0  0  0  0  0  0  0  0  0  0  0  0
   44.3540   31.5293   49.6289 H   0  0  0  0  0  0  0  0  0  0  0  0
   48.1145   29.8408   48.6308 H   0  0  0  0  0  0  0  0  0  0  0  0
   43.6604   33.6930   48.2700 H   0  0  0  0  0  0  0  0  0  0  0  0
   44.7921   34.3017   47.0325 H   0  0  0  0  0  0  0  0  0  0  0  0
  1 15  1  0
  2  1  2  0
  3  2  1  0
  4  3  2  0
  4  5  1  0
  5  6  2  0
  6  1  1  0
  7  5  1  0
  8  7  1  0
  9  8  2  0
 10  9  1  0
 11 12  1  0
 11 10  2  0
 12 13  2  0
 13 14  1  0
 13  8  1  0
 14  4  1  0
 15 16  1  0
 16 17  2  0
 16 18  1  0
 18 19  1  0
 19 24  1  0
 19 20  2  0
 20 21  1  0
 21 22  2  0
 23 22  1  0
 24 23  2  0
 25 20  1  0
  2 26  1  0
  3 27  1  0
  6 28  1  0
  9 29  1  0
 10 30  1  0
 11 31  1  0
 12 32  1  0
 14 33  1  0
 18 34  1  0
 21 35  1  0
 23 36  1  0
 25 37  1  0
 25 38  1  0
M  ISO  8  26  14  27  14  28  14  29  14  30  14  31  14  32  14  35  14
M  ISO  1  36  14
M  END
>  <minimizedAffinity>  (1) 
-6.88825655

>  <minimizedRMSD>  (1) 
3.91057777

$$$$
