
     RDKit          3D

 33 35  0  0  0  0  0  0  0  0999 V2000
   43.5870   35.2650   42.0880 C   0  0  0  0  0  0  0  0  0  0  0  0
   43.8320   34.0110   42.0900 O   0  0  0  0  0  0  0  0  0  0  0  0
   44.4270   36.0010   42.9780 N   0  0  0  0  0  0  0  0  0  0  0  0
   45.3210   35.0610   43.6470 C   0  0  0  0  0  0  0  0  0  0  0  0
   45.2010   34.6750   44.9580 C   0  0  0  0  0  0  0  0  0  0  0  0
   46.1410   33.7710   45.4260 C   0  0  0  0  0  0  0  0  0  0  0  0
   47.0860   33.3510   44.5580 N   0  0  0  0  0  0  0  0  0  0  0  0
   47.1740   33.7480   43.2810 C   0  0  0  0  0  0  0  0  0  0  0  0
   46.2660   34.6350   42.7960 N   0  0  0  0  0  0  0  0  0  0  0  0
   44.1420   35.2270   45.7070 N   0  0  0  0  0  0  0  0  0  0  0  0
   42.6040   35.9040   41.3110 O   0  0  0  0  0  0  0  0  0  0  0  0
   41.4530   35.1930   40.9820 C   0  0  0  0  0  0  0  0  0  0  0  0
   40.9020   34.5370   42.0500 C   0  0  0  0  0  0  0  0  0  0  0  0
   39.7510   33.7840   41.8900 C   0  0  0  0  0  0  0  0  0  0  0  0
   39.1680   33.7010   40.6430 C   0  0  0  0  0  0  0  0  0  0  0  0
   39.7240   34.3660   39.5540 C   0  0  0  0  0  0  0  0  0  0  0  0
   39.1510   34.2920   38.3010 C   0  0  0  0  0  0  0  0  0  0  0  0
   39.7600   34.9760   37.2720 C   0  0  0  0  0  0  0  0  0  0  0  0
   40.9200   35.7290   37.4620 C   0  0  0  0  0  0  0  0  0  0  0  0
   41.5100   35.8140   38.7140 C   0  0  0  0  0  0  0  0  0  0  0  0
   40.8690   35.1100   39.7330 C   0  0  0  0  0  0  0  0  0  0  0  0
   44.4056   37.0205   43.1230 H   0  0  0  0  0  0  0  0  0  0  0  0
   46.1182   33.4095   46.4646 H   0  0  0  0  0  0  0  0  0  0  0  0
   47.9730   33.3598   42.6322 H   0  0  0  0  0  0  0  0  0  0  0  0
   44.0174   34.9629   46.6947 H   0  0  0  0  0  0  0  0  0  0  0  0
   43.4929   35.8945   45.2665 H   0  0  0  0  0  0  0  0  0  0  0  0
   41.3760   34.6085   43.0401 H   0  0  0  0  0  0  0  0  0  0  0  0
   39.3067   33.2580   42.7479 H   0  0  0  0  0  0  0  0  0  0  0  0
   38.2545   33.1033   40.5076 H   0  0  0  0  0  0  0  0  0  0  0  0
   38.2366   33.7052   38.1292 H   0  0  0  0  0  0  0  0  0  0  0  0
   39.3171   34.9272   36.2663 H   0  0  0  0  0  0  0  0  0  0  0  0
   41.3703   36.2600   36.6104 H   0  0  0  0  0  0  0  0  0  0  0  0
   42.4245   36.3989   38.8919 H   0  0  0  0  0  0  0  0  0  0  0  0
  1  2  2  0
  1  3  1  0
  3  4  1  0
  4  5  2  0
  5  6  1  0
  5 10  1  0
  7  6  2  0
  8  7  1  0
  9  8  2  0
  9  4  1  0
 11  1  1  0
 12 11  1  0
 12 13  2  0
 14 13  1  0
 15 14  2  0
 16 21  2  0
 16 15  1  0
 17 16  1  0
 18 19  1  0
 18 17  2  0
 19 20  2  0
 20 21  1  0
 21 12  1  0
  3 22  1  0
  6 23  1  0
  8 24  1  0
 10 25  1  0
 10 26  1  0
 13 27  1  0
 14 28  1  0
 15 29  1  0
 17 30  1  0
 18 31  1  0
 19 32  1  0
 20 33  1  0
M  ISO  8  23  14  24  14  27  14  28  14  29  14  30  14  31  14  32  14
M  ISO  1  33  14
M  END
>  <minimizedAffinity>  (1) 
-6.41002178

>  <minimizedRMSD>  (1) 
1.79608285

$$$$
