
     RDKit          3D

 37 39  0  0  1  0  0  0  0  0999 V2000
   43.5520   35.4840   41.1620 O   0  0  0  0  0  0  0  0  0  0  0  0
   44.2340   34.8100   42.1820 C   0  0  0  0  0  0  0  0  0  0  0  0
   44.1040   33.5870   42.5050 O   0  0  0  0  0  0  0  0  0  0  0  0
   45.1960   35.4920   42.9940 N   0  0  0  0  0  0  0  0  0  0  0  0
   45.7200   34.5550   43.9870 C   0  0  0  0  0  0  0  0  0  0  0  0
   45.2780   34.4600   45.2820 C   0  0  0  0  0  0  0  0  0  0  0  0
   45.9000   33.5040   46.0630 C   0  0  0  0  0  0  0  0  0  0  0  0
   46.8660   32.7580   45.5140 N   0  0  0  0  0  0  0  0  0  0  0  0
   47.2760   32.8780   44.2340 C   0  0  0  0  0  0  0  0  0  0  0  0
   46.6860   33.8110   43.4300 N   0  0  0  0  0  0  0  0  0  0  0  0
   44.2470   35.3340   45.6830 N   0  0  0  0  0  0  0  0  0  0  0  0
   42.1290   35.2540   41.0680 C   0  0  0  0  0  0  0  0  0  0  0  0
   41.8300   34.1580   40.1410 C   0  0  0  0  0  0  0  0  0  0  0  0
   40.7570   33.3870   40.2040 C   0  0  0  0  0  0  0  0  0  0  0  0
   40.6050   32.3660   39.2270 N   0  0  0  0  0  0  0  0  0  0  0  0
   39.6750   31.6670   38.4070 C   0  0  0  0  0  0  0  0  0  0  0  0
   38.4240   31.5740   38.2020 O   0  0  0  0  0  0  0  0  0  0  0  0
   40.7620   30.9400   37.7270 C   0  0  0  0  0  0  0  0  0  0  0  0
   41.7130   31.5720   38.6910 C   0  0  1  0  0  0  0  0  0  0  0  0
   42.8760   32.7730   37.9920 S   0  0  0  0  0  0  0  0  0  0  0  0
   42.9530   34.1260   39.1730 C   0  0  0  0  0  0  0  0  0  0  0  0
   39.7110   33.5270   41.2210 C   0  0  0  0  0  0  0  0  0  0  0  0
   39.7250   33.8130   42.4390 O   0  0  0  0  0  0  0  0  0  0  0  0
   38.3850   33.3380   40.9420 O   0  0  0  0  0  0  0  0  0  0  0  0
   45.4731   36.4791   42.8951 H   0  0  0  0  0  0  0  0  0  0  0  0
   45.6072   33.3595   47.1134 H   0  0  0  0  0  0  0  0  0  0  0  0
   48.0759   32.2321   43.8429 H   0  0  0  0  0  0  0  0  0  0  0  0
   43.8855   35.2962   46.6467 H   0  0  0  0  0  0  0  0  0  0  0  0
   43.8552   36.0104   45.0122 H   0  0  0  0  0  0  0  0  0  0  0  0
   41.7402   34.9974   42.0645 H   0  0  0  0  0  0  0  0  0  0  0  0
   41.6519   36.1703   40.6901 H   0  0  0  0  0  0  0  0  0  0  0  0
   40.6960   29.8445   37.8015 H   0  0  0  0  0  0  0  0  0  0  0  0
   40.9112   31.0138   36.6397 H   0  0  0  0  0  0  0  0  0  0  0  0
   42.3626   30.8957   39.2661 H   0  0  0  0  0  0  0  0  0  0  0  0
   43.8923   34.0363   39.7384 H   0  0  0  0  0  0  0  0  0  0  0  0
   42.8914   35.0564   38.5894 H   0  0  0  0  0  0  0  0  0  0  0  0
   37.7089   33.4421   41.6576 H   0  0  0  0  0  0  0  0  0  0  0  0
  1  2  1  0
  2  3  2  0
  2  4  1  0
  4  5  1  0
  5  6  2  0
  6 11  1  0
  6  7  1  0
  8  7  2  0
  9  8  1  0
 10  5  1  0
 10  9  2  0
 12  1  1  0
 13 14  2  0
 13 12  1  0
 14 22  1  0
 15 14  1  0
 16 15  1  0
 17 16  2  0
 18 16  1  0
 19 18  1  0
 19 15  1  0
 20 19  1  0
 20 21  1  0
 21 13  1  0
 22 23  2  0
 24 22  1  0
  4 25  1  0
  7 26  1  0
  9 27  1  0
 11 28  1  0
 11 29  1  0
 12 30  1  0
 12 31  1  0
 18 32  1  0
 18 33  1  0
 19 34  1  1
 21 35  1  0
 21 36  1  0
 24 37  1  0
M  ISO  8  26  14  27  14  30   8  31   8  32  13  33  13  34  13  35  13
M  ISO  2  36  13  37   3
M  END
>  <minimizedAffinity>  (1) 
-5.57155085

>  <minimizedRMSD>  (1) 
2.39580584

$$$$
