
     RDKit          3D

 27 28  0  0  0  0  0  0  0  0999 V2000
   44.3060   34.9820   41.8980 C   0  0  0  0  0  0  0  0  0  0  0  0
   44.2120   33.7370   42.1740 O   0  0  0  0  0  0  0  0  0  0  0  0
   45.1900   35.6820   42.7750 N   0  0  0  0  0  0  0  0  0  0  0  0
   45.7080   34.7300   43.7560 C   0  0  0  0  0  0  0  0  0  0  0  0
   45.2250   34.5910   45.0320 C   0  0  0  0  0  0  0  0  0  0  0  0
   45.8510   33.6250   45.8170 C   0  0  0  0  0  0  0  0  0  0  0  0
   46.8610   32.9150   45.2770 N   0  0  0  0  0  0  0  0  0  0  0  0
   47.3000   33.0890   44.0190 C   0  0  0  0  0  0  0  0  0  0  0  0
   46.7160   34.0180   43.2250 N   0  0  0  0  0  0  0  0  0  0  0  0
   44.1570   35.4240   45.4210 N   0  0  0  0  0  0  0  0  0  0  0  0
   43.6340   35.6460   40.8550 O   0  0  0  0  0  0  0  0  0  0  0  0
   42.9100   34.9820   38.3310 F   0  0  0  0  0  0  0  0  0  0  0  0
   41.9580   34.9680   39.2980 C   0  0  0  0  0  0  0  0  0  0  0  0
   42.3110   35.3060   40.5910 C   0  0  0  0  0  0  0  0  0  0  0  0
   41.3720   35.3080   41.6160 C   0  0  0  0  0  0  0  0  0  0  0  0
   40.0540   34.9590   41.3080 C   0  0  0  0  0  0  0  0  0  0  0  0
   39.7130   34.6230   40.0040 C   0  0  0  0  0  0  0  0  0  0  0  0
   40.6460   34.6190   38.9810 C   0  0  0  0  0  0  0  0  0  0  0  0
   45.4223   36.6842   42.7248 H   0  0  0  0  0  0  0  0  0  0  0  0
   45.5283   33.4461   46.8533 H   0  0  0  0  0  0  0  0  0  0  0  0
   48.1310   32.4789   43.6352 H   0  0  0  0  0  0  0  0  0  0  0  0
   43.7660   35.3503   46.3711 H   0  0  0  0  0  0  0  0  0  0  0  0
   43.7674   36.1065   44.7553 H   0  0  0  0  0  0  0  0  0  0  0  0
   41.6588   35.5773   42.6432 H   0  0  0  0  0  0  0  0  0  0  0  0
   39.2878   34.9504   42.0972 H   0  0  0  0  0  0  0  0  0  0  0  0
   38.6712   34.3522   39.7775 H   0  0  0  0  0  0  0  0  0  0  0  0
   40.3617   34.3496   37.9531 H   0  0  0  0  0  0  0  0  0  0  0  0
  1  2  2  0
  1  3  1  0
  3  4  1  0
  4  5  2  0
  5 10  1  0
  5  6  1  0
  7  6  2  0
  8  7  1  0
  9  4  1  0
  9  8  2  0
 11  1  1  0
 12 13  1  0
 13 14  2  0
 14 11  1  0
 14 15  1  0
 16 15  2  0
 17 16  1  0
 18 13  1  0
 18 17  2  0
  3 19  1  0
  6 20  1  0
  8 21  1  0
 10 22  1  0
 10 23  1  0
 15 24  1  0
 16 25  1  0
 17 26  1  0
 18 27  1  0
M  ISO  6  20  14  21  14  24  14  25  14  26  14  27  14
M  END
>  <minimizedAffinity>  (1) 
-5.54396534

>  <minimizedRMSD>  (1) 
1.16648161

$$$$
