
     RDKit          3D

 24 25  0  0  0  0  0  0  0  0999 V2000
   45.6920   34.6310   44.3030 C   0  0  0  0  0  0  0  0  0  0  0  0
   45.2800   34.3810   45.5890 C   0  0  0  0  0  0  0  0  0  0  0  0
   45.9040   33.3070   46.2230 C   0  0  0  0  0  0  0  0  0  0  0  0
   46.8360   32.6210   45.5390 N   0  0  0  0  0  0  0  0  0  0  0  0
   47.2090   32.8980   44.2890 C   0  0  0  0  0  0  0  0  0  0  0  0
   46.6240   33.9360   43.6390 N   0  0  0  0  0  0  0  0  0  0  0  0
   44.2830   35.1290   42.4960 C   0  0  0  0  0  0  0  0  0  0  0  0
   44.1930   33.8640   42.6070 O   0  0  0  0  0  0  0  0  0  0  0  0
   45.1860   35.6890   43.4440 N   0  0  0  0  0  0  0  0  0  0  0  0
   43.6020   35.9310   41.5750 O   0  0  0  0  0  0  0  0  0  0  0  0
   42.3940   35.5190   41.0430 C   0  0  0  0  0  0  0  0  0  0  0  0
   41.1460   35.5380   41.4710 C   0  0  0  0  0  0  0  0  0  0  0  0
   40.1030   35.0680   40.7620 C   0  0  0  0  0  0  0  0  0  0  0  0
   40.5180   34.5330   39.4560 C   0  0  0  0  0  0  0  0  0  0  0  0
   42.3930   34.8100   39.4870 S   0  0  0  0  0  0  0  0  0  0  0  0
   44.2850   35.2170   46.1340 N   0  0  0  0  0  0  0  0  0  0  0  0
   45.6408   33.0289   47.2542 H   0  0  0  0  0  0  0  0  0  0  0  0
   47.9810   32.2929   43.7910 H   0  0  0  0  0  0  0  0  0  0  0  0
   45.4401   36.6849   43.5105 H   0  0  0  0  0  0  0  0  0  0  0  0
   40.9463   35.9630   42.4658 H   0  0  0  0  0  0  0  0  0  0  0  0
   39.0621   35.0822   41.1175 H   0  0  0  0  0  0  0  0  0  0  0  0
   39.8987   34.0865   38.6641 H   0  0  0  0  0  0  0  0  0  0  0  0
   43.9506   35.0603   47.0955 H   0  0  0  0  0  0  0  0  0  0  0  0
   43.8921   35.9847   45.5708 H   0  0  0  0  0  0  0  0  0  0  0  0
  1  2  2  0
  2 16  1  0
  2  3  1  0
  4  3  2  0
  5  4  1  0
  6  5  2  0
  6  1  1  0
  7  8  2  0
  7  9  1  0
  9  1  1  0
 10  7  1  0
 11 12  2  0
 11 10  1  0
 13 12  1  0
 14 15  1  0
 14 13  2  0
 15 11  1  0
  3 17  1  0
  5 18  1  0
  9 19  1  0
 12 20  1  0
 13 21  1  0
 14 22  1  0
 16 23  1  0
 16 24  1  0
M  ISO  5  17  14  18  14  20  14  21  14  22  14
M  END
>  <minimizedAffinity>  (1) 
-5.08398867

>  <minimizedRMSD>  (1) 
0.688607275

$$$$
