
     RDKit          3D

 21 21  0  0  0  0  0  0  0  0999 V2000
   45.7540   34.5180   44.3820 C   0  0  0  0  0  0  0  0  0  0  0  0
   45.2920   34.3220   45.6600 C   0  0  0  0  0  0  0  0  0  0  0  0
   45.8630   33.2510   46.3460 C   0  0  0  0  0  0  0  0  0  0  0  0
   46.7930   32.5190   45.7200 N   0  0  0  0  0  0  0  0  0  0  0  0
   47.2180   32.7480   44.4630 C   0  0  0  0  0  0  0  0  0  0  0  0
   46.6870   33.7840   43.7550 N   0  0  0  0  0  0  0  0  0  0  0  0
   44.3640   35.0190   42.5520 C   0  0  0  0  0  0  0  0  0  0  0  0
   44.2120   33.7770   42.7100 O   0  0  0  0  0  0  0  0  0  0  0  0
   45.2870   35.5750   43.4950 N   0  0  0  0  0  0  0  0  0  0  0  0
   43.7310   35.8030   41.5890 O   0  0  0  0  0  0  0  0  0  0  0  0
   42.3730   35.5380   41.3060 C   0  0  0  0  0  0  0  0  0  0  0  0
   42.0260   35.3820   40.0970 O   0  0  0  0  0  0  0  0  0  0  0  0
   41.4060   35.4450   42.3300 N   0  0  0  0  0  0  0  0  0  0  0  0
   44.3050   35.1980   46.1500 N   0  0  0  0  0  0  0  0  0  0  0  0
   45.5572   33.0134   47.3756 H   0  0  0  0  0  0  0  0  0  0  0  0
   47.9873   32.1042   44.0116 H   0  0  0  0  0  0  0  0  0  0  0  0
   45.5744   36.5631   43.5391 H   0  0  0  0  0  0  0  0  0  0  0  0
   40.4225   35.2506   42.0935 H   0  0  0  0  0  0  0  0  0  0  0  0
   41.6838   35.5715   43.3137 H   0  0  0  0  0  0  0  0  0  0  0  0
   43.9377   35.0777   47.1047 H   0  0  0  0  0  0  0  0  0  0  0  0
   43.9502   35.9593   45.5538 H   0  0  0  0  0  0  0  0  0  0  0  0
  1  2  2  0
  2 14  1  0
  2  3  1  0
  4  3  2  0
  5  4  1  0
  6  1  1  0
  6  5  2  0
  7  8  2  0
  7  9  1  0
  9  1  1  0
 10  7  1  0
 11 10  1  0
 11 13  1  0
 12 11  2  0
  3 15  1  0
  5 16  1  0
  9 17  1  0
 13 18  1  0
 13 19  1  0
 14 20  1  0
 14 21  1  0
M  ISO  2  15  14  16  14
M  END
>  <minimizedAffinity>  (1) 
-4.60627079

>  <minimizedRMSD>  (1) 
0.670046985

$$$$
