
     RDKit          3D

 19 19  0  0  0  0  0  0  0  0999 V2000
   45.6740   34.6300   44.3130 C   0  0  0  0  0  0  0  0  0  0  0  0
   45.2830   34.3750   45.6040 C   0  0  0  0  0  0  0  0  0  0  0  0
   45.9330   33.3120   46.2270 C   0  0  0  0  0  0  0  0  0  0  0  0
   46.8680   32.6350   45.5420 N   0  0  0  0  0  0  0  0  0  0  0  0
   47.2170   32.9250   44.2720 C   0  0  0  0  0  0  0  0  0  0  0  0
   46.6100   33.9490   43.6300 N   0  0  0  0  0  0  0  0  0  0  0  0
   44.2350   35.1120   42.5210 C   0  0  0  0  0  0  0  0  0  0  0  0
   44.1640   33.8440   42.6290 O   0  0  0  0  0  0  0  0  0  0  0  0
   45.1250   35.6870   43.4790 N   0  0  0  0  0  0  0  0  0  0  0  0
   43.5400   35.8770   41.5870 O   0  0  0  0  0  0  0  0  0  0  0  0
   42.3580   35.3760   41.0470 C   0  0  0  0  0  0  0  0  0  0  0  0
   41.2830   35.5720   41.6880 O   0  0  0  0  0  0  0  0  0  0  0  0
   44.2820   35.1940   46.1600 N   0  0  0  0  0  0  0  0  0  0  0  0
   45.6846   33.0325   47.2615 H   0  0  0  0  0  0  0  0  0  0  0  0
   47.9905   32.3324   43.7615 H   0  0  0  0  0  0  0  0  0  0  0  0
   45.3430   36.6900   43.5652 H   0  0  0  0  0  0  0  0  0  0  0  0
   42.3579   34.8272   40.0937 H   0  0  0  0  0  0  0  0  0  0  0  0
   43.9626   35.0331   47.1259 H   0  0  0  0  0  0  0  0  0  0  0  0
   43.8690   35.9541   45.6009 H   0  0  0  0  0  0  0  0  0  0  0  0
  1  2  2  0
  2 13  1  0
  2  3  1  0
  4  3  2  0
  5  4  1  0
  6  5  2  0
  6  1  1  0
  7  8  2  0
  7  9  1  0
  9  1  1  0
 10  7  1  0
 11 10  1  0
 11 12  2  0
  3 14  1  0
  5 15  1  0
  9 16  1  0
 11 17  1  0
 13 18  1  0
 13 19  1  0
M  ISO  3  14  14  15  14  17   6
M  END
>  <minimizedAffinity>  (1) 
-4.10339308

>  <minimizedRMSD>  (1) 
0.381823599

$$$$
