
     RDKit          3D

 24 25  0  0  0  0  0  0  0  0999 V2000
   46.4620   32.6630   45.0510 C   0  0  0  0  0  0  0  0  0  0  0  0
   44.5640   35.8340   44.6140 C   0  0  0  0  0  0  0  0  0  0  0  0
   45.0180   36.2700   43.3360 C   0  0  0  0  0  0  0  0  0  0  0  0
   45.9460   35.4540   42.7020 C   0  0  0  0  0  0  0  0  0  0  0  0
   46.3700   34.3200   43.2910 N   0  0  0  0  0  0  0  0  0  0  0  0
   45.9060   33.9360   44.5250 C   0  0  0  0  0  0  0  0  0  0  0  0
   45.0050   34.6940   45.1820 N   0  0  0  0  0  0  0  0  0  0  0  0
   46.7810   32.9480   46.5230 C   0  0  0  0  0  0  0  0  0  0  0  0
   46.1240   31.8900   47.3440 C   0  0  0  0  0  0  0  0  0  0  0  0
   45.9020   32.2390   48.6610 C   0  0  0  0  0  0  0  0  0  0  0  0
   45.2960   31.3260   49.5110 C   0  0  0  0  0  0  0  0  0  0  0  0
   44.9410   30.1290   49.0370 N   0  0  0  0  0  0  0  0  0  0  0  0
   45.1610   29.7910   47.7450 C   0  0  0  0  0  0  0  0  0  0  0  0
   45.7560   30.6770   46.8940 N   0  0  0  0  0  0  0  0  0  0  0  0
   47.3751   32.3847   44.5043 H   0  0  0  0  0  0  0  0  0  0  0  0
   45.7582   31.8255   44.9353 H   0  0  0  0  0  0  0  0  0  0  0  0
   43.8292   36.4481   45.1552 H   0  0  0  0  0  0  0  0  0  0  0  0
   44.6539   37.2010   42.8770 H   0  0  0  0  0  0  0  0  0  0  0  0
   46.3367   35.7358   41.7131 H   0  0  0  0  0  0  0  0  0  0  0  0
   47.8692   32.9233   46.6818 H   0  0  0  0  0  0  0  0  0  0  0  0
   46.4115   33.9433   46.8110 H   0  0  0  0  0  0  0  0  0  0  0  0
   46.2024   33.2300   49.0320 H   0  0  0  0  0  0  0  0  0  0  0  0
   45.1098   31.5849   50.5638 H   0  0  0  0  0  0  0  0  0  0  0  0
   44.8591   28.7984   47.3793 H   0  0  0  0  0  0  0  0  0  0  0  0
  1  8  1  0
  2  7  2  0
  3  2  1  0
  4  5  1  0
  4  3  2  0
  5  6  2  0
  6  1  1  0
  6  7  1  0
  8  9  1  0
  9 10  2  0
 10 11  1  0
 12 11  2  0
 13 12  1  0
 14  9  1  0
 14 13  2  0
  1 15  1  0
  1 16  1  0
  2 17  1  0
  3 18  1  0
  4 19  1  0
  8 20  1  0
  8 21  1  0
 10 22  1  0
 11 23  1  0
 13 24  1  0
M  ISO  8  15   8  16   8  17  14  18  14  19  14  20   8  21   8  22  14
M  ISO  2  23  14  24  14
M  END
>  <minimizedAffinity>  (1) 
-4.53167915

>  <minimizedRMSD>  (1) 
1.56644273

$$$$
