
     RDKit          3D

 30 31  0  0  0  0  0  0  0  0999 V2000
   44.3640   34.9130   42.0350 C   0  0  0  0  0  0  0  0  0  0  0  0
   44.1610   33.6900   42.3630 O   0  0  0  0  0  0  0  0  0  0  0  0
   45.3030   35.5600   42.8790 N   0  0  0  0  0  0  0  0  0  0  0  0
   45.7630   34.6110   43.8810 C   0  0  0  0  0  0  0  0  0  0  0  0
   45.2450   34.5470   45.1570 C   0  0  0  0  0  0  0  0  0  0  0  0
   45.8010   33.5820   45.9840 C   0  0  0  0  0  0  0  0  0  0  0  0
   46.7780   32.8070   45.4830 N   0  0  0  0  0  0  0  0  0  0  0  0
   47.2540   32.9010   44.2360 C   0  0  0  0  0  0  0  0  0  0  0  0
   46.7380   33.8310   43.3950 N   0  0  0  0  0  0  0  0  0  0  0  0
   44.2210   35.4440   45.5040 N   0  0  0  0  0  0  0  0  0  0  0  0
   43.7460   35.5710   40.9670 O   0  0  0  0  0  0  0  0  0  0  0  0
   43.6780   33.6460   38.7240 Cl  0  0  0  0  0  0  0  0  0  0  0  0
   42.3100   34.3190   39.5780 C   0  0  0  0  0  0  0  0  0  0  0  0
   42.4460   35.2170   40.6210 C   0  0  0  0  0  0  0  0  0  0  0  0
   41.3310   35.7080   41.2490 C   0  0  0  0  0  0  0  0  0  0  0  0
   40.0490   35.3590   40.9070 C   0  0  0  0  0  0  0  0  0  0  0  0
   39.8810   34.4540   39.8590 C   0  0  0  0  0  0  0  0  0  0  0  0
   38.2820   33.9320   39.3300 Cl  0  0  0  0  0  0  0  0  0  0  0  0
   41.0170   33.9780   39.2470 C   0  0  0  0  0  0  0  0  0  0  0  0
   40.8710   32.9980   38.1100 C   0  0  0  0  0  0  0  0  0  0  0  0
   45.6087   36.5401   42.7960 H   0  0  0  0  0  0  0  0  0  0  0  0
   45.4524   33.4548   47.0195 H   0  0  0  0  0  0  0  0  0  0  0  0
   48.0566   32.2299   43.8962 H   0  0  0  0  0  0  0  0  0  0  0  0
   43.8142   35.4202   46.4499 H   0  0  0  0  0  0  0  0  0  0  0  0
   43.8771   36.1255   44.8125 H   0  0  0  0  0  0  0  0  0  0  0  0
   41.4720   36.4221   42.0737 H   0  0  0  0  0  0  0  0  0  0  0  0
   39.1835   35.7784   41.4408 H   0  0  0  0  0  0  0  0  0  0  0  0
   40.7203   31.9864   38.5149 H   0  0  0  0  0  0  0  0  0  0  0  0
   40.0048   33.2787   37.4929 H   0  0  0  0  0  0  0  0  0  0  0  0
   41.7815   33.0141   37.4929 H   0  0  0  0  0  0  0  0  0  0  0  0
  1  2  2  0
  1  3  1  0
  3  4  1  0
  4  5  2  0
  5 10  1  0
  5  6  1  0
  7  6  2  0
  8  7  1  0
  9  4  1  0
  9  8  2  0
 11  1  1  0
 12 13  1  0
 13 14  2  0
 14 11  1  0
 14 15  1  0
 16 15  2  0
 17 16  1  0
 18 17  1  0
 19 13  1  0
 19 17  2  0
 20 19  1  0
  3 21  1  0
  6 22  1  0
  8 23  1  0
 10 24  1  0
 10 25  1  0
 15 26  1  0
 16 27  1  0
 20 28  1  0
 20 29  1  0
 20 30  1  0
M  ISO  7  22  14  23  14  26  14  27  14  28   8  29   8  30   8
M  END
>  <minimizedAffinity>  (1) 
-6.06954098

>  <minimizedRMSD>  (1) 
0.0722702369

$$$$
