
     RDKit          3D

 28 29  0  0  0  0  0  0  0  0999 V2000
   44.4090   34.8710   41.9810 C   0  0  0  0  0  0  0  0  0  0  0  0
   44.1910   33.6560   42.3310 O   0  0  0  0  0  0  0  0  0  0  0  0
   45.3410   35.5230   42.8360 N   0  0  0  0  0  0  0  0  0  0  0  0
   45.7650   34.6030   43.8600 C   0  0  0  0  0  0  0  0  0  0  0  0
   45.2190   34.5610   45.1310 C   0  0  0  0  0  0  0  0  0  0  0  0
   45.7620   33.6010   45.9800 C   0  0  0  0  0  0  0  0  0  0  0  0
   46.7390   32.8100   45.5330 N   0  0  0  0  0  0  0  0  0  0  0  0
   47.2420   32.8870   44.2800 C   0  0  0  0  0  0  0  0  0  0  0  0
   46.7470   33.8040   43.4180 N   0  0  0  0  0  0  0  0  0  0  0  0
   44.1960   35.4650   45.4400 N   0  0  0  0  0  0  0  0  0  0  0  0
   43.8130   35.5060   40.8910 O   0  0  0  0  0  0  0  0  0  0  0  0
   43.6910   33.6900   38.5760 Cl  0  0  0  0  0  0  0  0  0  0  0  0
   42.3350   34.3310   39.4830 C   0  0  0  0  0  0  0  0  0  0  0  0
   42.4990   35.1850   40.5650 C   0  0  0  0  0  0  0  0  0  0  0  0
   41.3890   35.6510   41.2320 C   0  0  0  0  0  0  0  0  0  0  0  0
   40.1020   35.3180   40.8880 C   0  0  0  0  0  0  0  0  0  0  0  0
   39.9120   34.4660   39.8110 C   0  0  0  0  0  0  0  0  0  0  0  0
   38.2970   33.9850   39.3000 Cl  0  0  0  0  0  0  0  0  0  0  0  0
   41.0320   34.0020   39.1460 C   0  0  0  0  0  0  0  0  0  0  0  0
   40.7930   33.1470   38.0680 O   0  0  0  0  0  0  0  0  0  0  0  0
   45.6612   36.4971   42.7383 H   0  0  0  0  0  0  0  0  0  0  0  0
   45.3892   33.4955   47.0095 H   0  0  0  0  0  0  0  0  0  0  0  0
   48.0481   32.2085   43.9642 H   0  0  0  0  0  0  0  0  0  0  0  0
   43.7691   35.4589   46.3773 H   0  0  0  0  0  0  0  0  0  0  0  0
   43.8701   36.1363   44.7300 H   0  0  0  0  0  0  0  0  0  0  0  0
   41.5410   36.3266   42.0867 H   0  0  0  0  0  0  0  0  0  0  0  0
   39.2454   35.7163   41.4515 H   0  0  0  0  0  0  0  0  0  0  0  0
   39.8642   32.9081   37.8222 H   0  0  0  0  0  0  0  0  0  0  0  0
  1  2  2  0
  1  3  1  0
  3  4  1  0
  4  5  2  0
  5 10  1  0
  5  6  1  0
  7  6  2  0
  8  7  1  0
  9  4  1  0
  9  8  2  0
 11  1  1  0
 12 13  1  0
 13 14  2  0
 14 11  1  0
 14 15  1  0
 16 15  2  0
 17 16  1  0
 18 17  1  0
 19 13  1  0
 19 17  2  0
 20 19  1  0
  3 21  1  0
  6 22  1  0
  8 23  1  0
 10 24  1  0
 10 25  1  0
 15 26  1  0
 16 27  1  0
 20 28  1  0
M  ISO  5  22  14  23  14  26  14  27  14  28   3
M  END
>  <minimizedAffinity>  (1) 
-5.98858976

>  <minimizedRMSD>  (1) 
0.0110083539

$$$$
