
     RDKit          3D

 35 37  0  0  1  0  0  0  0  0999 V2000
   44.7510   32.9980   41.1630 Br  0  0  0  0  0  0  0  0  0  0  0  0
   46.3920   33.9320   40.9090 C   0  0  0  0  0  0  0  0  0  0  0  0
   46.8740   34.7340   41.9100 C   0  0  0  0  0  0  0  0  0  0  0  0
   48.0920   35.4380   41.7420 C   0  0  0  0  0  0  0  0  0  0  0  0
   48.7610   35.2880   40.5620 C   0  0  0  0  0  0  0  0  0  0  0  0
   48.2290   34.4640   39.5820 C   0  0  0  0  0  0  0  0  0  0  0  0
   47.0550   33.7810   39.7310 C   0  0  0  0  0  0  0  0  0  0  0  0
   46.6130   32.9620   38.6470 N   0  0  0  0  0  0  0  0  0  0  0  0
   45.9830   33.3870   37.4110 C   0  0  0  0  0  0  0  0  0  0  0  0
   44.9660   32.3700   36.9220 C   0  0  0  0  0  0  0  0  0  0  0  0
   45.5960   31.0990   36.5980 N   0  0  0  0  0  0  0  0  0  0  0  0
   46.9080   31.0610   37.2360 C   0  0  0  0  0  0  0  0  0  0  0  0
   46.7670   31.5100   38.6870 C   0  0  1  0  0  0  0  0  0  0  0  0
   48.3510   31.1450   39.5060 S   0  0  0  0  0  0  0  0  0  0  0  0
   45.6280   34.0570   45.2690 C   0  0  0  0  0  0  0  0  0  0  0  0
   44.7130   35.0920   45.5110 C   0  0  0  0  0  0  0  0  0  0  0  0
   44.5440   36.0260   44.4770 C   0  0  0  0  0  0  0  0  0  0  0  0
   45.2480   35.8880   43.3340 N   0  0  0  0  0  0  0  0  0  0  0  0
   46.1270   34.8620   43.1500 C   0  0  0  0  0  0  0  0  0  0  0  0
   46.2910   33.9690   44.1330 N   0  0  0  0  0  0  0  0  0  0  0  0
   48.4865   36.0859   42.5386 H   0  0  0  0  0  0  0  0  0  0  0  0
   49.7113   35.8147   40.3904 H   0  0  0  0  0  0  0  0  0  0  0  0
   48.7802   34.3545   38.6364 H   0  0  0  0  0  0  0  0  0  0  0  0
   45.4738   34.3470   37.5818 H   0  0  0  0  0  0  0  0  0  0  0  0
   46.7648   33.4874   36.6437 H   0  0  0  0  0  0  0  0  0  0  0  0
   44.2164   32.2067   37.7103 H   0  0  0  0  0  0  0  0  0  0  0  0
   44.4951   32.7643   36.0094 H   0  0  0  0  0  0  0  0  0  0  0  0
   45.0158   30.3235   36.9486 H   0  0  0  0  0  0  0  0  0  0  0  0
   47.3042   30.0353   37.2040 H   0  0  0  0  0  0  0  0  0  0  0  0
   47.5995   31.7315   36.7047 H   0  0  0  0  0  0  0  0  0  0  0  0
   45.9281   31.0215   39.2043 H   0  0  0  0  0  0  0  0  0  0  0  0
   48.1821   31.1839   40.8650 H   0  0  0  0  0  0  0  0  0  0  0  0
   45.7969   33.2986   46.0477 H   0  0  0  0  0  0  0  0  0  0  0  0
   44.1588   35.1676   46.4582 H   0  0  0  0  0  0  0  0  0  0  0  0
   43.8425   36.8647   44.5975 H   0  0  0  0  0  0  0  0  0  0  0  0
  2  1  1  0
  2  3  2  0
  3 19  1  0
  4  3  1  0
  5  4  2  0
  6  7  2  0
  6  5  1  0
  7  2  1  0
  8 13  1  0
  8  7  1  0
  9  8  1  0
 10  9  1  0
 11 10  1  0
 11 12  1  0
 12 13  1  0
 13 14  1  0
 15 16  2  0
 17 16  1  0
 18 17  2  0
 19 18  1  0
 19 20  2  0
 20 15  1  0
  4 21  1  0
  5 22  1  0
  6 23  1  0
  9 24  1  0
  9 25  1  0
 10 26  1  0
 10 27  1  0
 11 28  1  0
 12 29  1  0
 12 30  1  0
 13 31  1  1
 14 32  1  0
 15 33  1  0
 16 34  1  0
 17 35  1  0
M  ISO  8  21  14  22  14  23  14  24  13  25  13  26  13  27  13  28   5
M  ISO  7  29  13  30  13  31  13  32  11  33  14  34  14  35  14
M  END
>  <minimizedAffinity>  (1) 
-5.48263407

>  <minimizedRMSD>  (1) 
0.238585502

$$$$
