
     RDKit          3D

 39 41  0  0  0  0  0  0  0  0999 V2000
   43.9170   34.8630   40.7530 O   0  0  0  0  0  0  0  0  0  0  0  0
   43.1370   32.3410   39.4110 Cl  0  0  0  0  0  0  0  0  0  0  0  0
   42.0660   33.6260   39.9470 C   0  0  0  0  0  0  0  0  0  0  0  0
   42.5330   34.7780   40.5720 C   0  0  0  0  0  0  0  0  0  0  0  0
   41.6510   35.7470   40.9680 C   0  0  0  0  0  0  0  0  0  0  0  0
   40.2860   35.6530   40.7860 C   0  0  0  0  0  0  0  0  0  0  0  0
   39.7930   34.4980   40.1580 C   0  0  0  0  0  0  0  0  0  0  0  0
   38.0760   34.2830   39.8780 Cl  0  0  0  0  0  0  0  0  0  0  0  0
   40.7010   33.5470   39.7730 C   0  0  0  0  0  0  0  0  0  0  0  0
   40.1990   32.3770   39.1370 N   0  0  0  0  0  0  0  0  0  0  0  0
   39.8160   31.1760   39.8700 C   0  0  0  0  0  0  0  0  0  0  0  0
   38.6830   30.5600   39.0790 C   0  0  0  0  0  0  0  0  0  0  0  0
   38.8930   31.0600   37.6660 C   0  0  0  0  0  0  0  0  0  0  0  0
   39.9650   32.1130   37.7230 C   0  0  0  0  0  0  0  0  0  0  0  0
   44.4560   34.3740   41.9590 C   0  0  0  0  0  0  0  0  0  0  0  0
   44.1160   33.3020   42.5560 O   0  0  0  0  0  0  0  0  0  0  0  0
   45.4910   35.0830   42.6510 N   0  0  0  0  0  0  0  0  0  0  0  0
   45.8280   34.3530   43.8520 C   0  0  0  0  0  0  0  0  0  0  0  0
   45.2090   34.5200   45.0640 C   0  0  0  0  0  0  0  0  0  0  0  0
   45.6700   33.7270   46.1080 C   0  0  0  0  0  0  0  0  0  0  0  0
   46.6760   32.8660   45.8520 N   0  0  0  0  0  0  0  0  0  0  0  0
   47.2540   32.7320   44.6520 C   0  0  0  0  0  0  0  0  0  0  0  0
   46.8310   33.4890   43.6100 N   0  0  0  0  0  0  0  0  0  0  0  0
   44.1690   35.4710   45.1500 N   0  0  0  0  0  0  0  0  0  0  0  0
   42.0509   36.6476   41.4568 H   0  0  0  0  0  0  0  0  0  0  0  0
   39.6095   36.4533   41.1205 H   0  0  0  0  0  0  0  0  0  0  0  0
   40.6639   30.4781   39.9332 H   0  0  0  0  0  0  0  0  0  0  0  0
   39.5128   31.4083   40.9015 H   0  0  0  0  0  0  0  0  0  0  0  0
   38.7356   29.4618   39.1149 H   0  0  0  0  0  0  0  0  0  0  0  0
   37.6956   30.8353   39.4781 H   0  0  0  0  0  0  0  0  0  0  0  0
   37.9597   31.4927   37.2765 H   0  0  0  0  0  0  0  0  0  0  0  0
   39.1890   30.2363   36.9997 H   0  0  0  0  0  0  0  0  0  0  0  0
   40.8858   31.7463   37.2458 H   0  0  0  0  0  0  0  0  0  0  0  0
   39.6602   33.0254   37.1894 H   0  0  0  0  0  0  0  0  0  0  0  0
   45.9230   35.9661   42.3437 H   0  0  0  0  0  0  0  0  0  0  0  0
   45.2278   33.7994   47.1126 H   0  0  0  0  0  0  0  0  0  0  0  0
   48.0709   32.0088   44.5117 H   0  0  0  0  0  0  0  0  0  0  0  0
   43.6822   35.6223   46.0450 H   0  0  0  0  0  0  0  0  0  0  0  0
   43.8971   36.0135   44.3177 H   0  0  0  0  0  0  0  0  0  0  0  0
  1 15  1  0
  2  3  1  0
  3  4  2  0
  4  1  1  0
  4  5  1  0
  6  5  2  0
  7  6  1  0
  8  7  1  0
  9  3  1  0
  9  7  2  0
 10  9  1  0
 10 11  1  0
 12 11  1  0
 13 14  1  0
 13 12  1  0
 14 10  1  0
 15 16  2  0
 15 17  1  0
 17 18  1  0
 18 19  2  0
 19 24  1  0
 19 20  1  0
 21 20  2  0
 22 21  1  0
 23 18  1  0
 23 22  2  0
  5 25  1  0
  6 26  1  0
 11 27  1  0
 11 28  1  0
 12 29  1  0
 12 30  1  0
 13 31  1  0
 13 32  1  0
 14 33  1  0
 14 34  1  0
 17 35  1  0
 20 36  1  0
 22 37  1  0
 24 38  1  0
 24 39  1  0
M  ISO  8  25  14  26  14  27  13  28  13  29  13  30  13  31  13  32  13
M  ISO  4  33  13  34  13  36  14  37  14
M  END
>  <minimizedAffinity>  (1) 
-5.94872522

>  <minimizedRMSD>  (1) 
1.18620038

$$$$
