
     RDKit          3D

 38 40  0  0  0  0  0  0  0  0999 V2000
   42.8610   32.0870   39.4110 Cl  0  0  0  0  0  0  0  0  0  0  0  0
   41.8970   33.4870   39.8580 C   0  0  0  0  0  0  0  0  0  0  0  0
   42.4510   34.6480   40.3920 C   0  0  0  0  0  0  0  0  0  0  0  0
   41.6580   35.7070   40.7230 C   0  0  0  0  0  0  0  0  0  0  0  0
   40.2880   35.7020   40.5570 C   0  0  0  0  0  0  0  0  0  0  0  0
   39.6970   34.5370   40.0170 C   0  0  0  0  0  0  0  0  0  0  0  0
   37.9640   34.4320   39.7670 Cl  0  0  0  0  0  0  0  0  0  0  0  0
   40.5300   33.4880   39.6950 C   0  0  0  0  0  0  0  0  0  0  0  0
   39.6930   31.4960   41.3530 F   0  0  0  0  0  0  0  0  0  0  0  0
   39.5200   31.2830   40.0100 C   0  0  0  0  0  0  0  0  0  0  0  0
   39.9360   32.2780   39.1370 C   0  0  0  0  0  0  0  0  0  0  0  0
   39.7440   32.0270   37.7740 C   0  0  0  0  0  0  0  0  0  0  0  0
   39.1650   30.8300   37.3830 C   0  0  0  0  0  0  0  0  0  0  0  0
   38.7690   29.8700   38.3070 C   0  0  0  0  0  0  0  0  0  0  0  0
   38.9420   30.0820   39.6760 C   0  0  0  0  0  0  0  0  0  0  0  0
   43.8470   34.6450   40.5580 O   0  0  0  0  0  0  0  0  0  0  0  0
   44.3600   34.2060   41.7740 C   0  0  0  0  0  0  0  0  0  0  0  0
   43.9540   33.1960   42.4640 O   0  0  0  0  0  0  0  0  0  0  0  0
   45.4480   34.8750   42.4030 N   0  0  0  0  0  0  0  0  0  0  0  0
   45.7330   34.2470   43.6780 C   0  0  0  0  0  0  0  0  0  0  0  0
   45.1660   34.5460   44.8760 C   0  0  0  0  0  0  0  0  0  0  0  0
   45.5830   33.8250   45.9640 C   0  0  0  0  0  0  0  0  0  0  0  0
   46.5280   32.8680   45.7620 N   0  0  0  0  0  0  0  0  0  0  0  0
   47.0670   32.5960   44.5700 C   0  0  0  0  0  0  0  0  0  0  0  0
   46.6690   33.3000   43.4790 N   0  0  0  0  0  0  0  0  0  0  0  0
   44.2030   35.5690   44.8950 N   0  0  0  0  0  0  0  0  0  0  0  0
   48.0240   31.5880   44.5240 O   0  0  0  0  0  0  0  0  0  0  0  0
   42.1324   36.6068   41.1417 H   0  0  0  0  0  0  0  0  0  0  0  0
   39.6775   36.5738   40.8351 H   0  0  0  0  0  0  0  0  0  0  0  0
   40.0487   32.7701   37.0224 H   0  0  0  0  0  0  0  0  0  0  0  0
   39.0146   30.6341   36.3111 H   0  0  0  0  0  0  0  0  0  0  0  0
   38.3140   28.9323   37.9554 H   0  0  0  0  0  0  0  0  0  0  0  0
   38.6381   29.3423   40.4314 H   0  0  0  0  0  0  0  0  0  0  0  0
   45.9550   35.6818   42.0119 H   0  0  0  0  0  0  0  0  0  0  0  0
   45.1682   34.0135   46.9652 H   0  0  0  0  0  0  0  0  0  0  0  0
   43.7464   35.8301   45.7806 H   0  0  0  0  0  0  0  0  0  0  0  0
   43.9537   36.0579   44.0234 H   0  0  0  0  0  0  0  0  0  0  0  0
   48.4518   31.3505   43.6634 H   0  0  0  0  0  0  0  0  0  0  0  0
  1  2  1  0
  2  3  2  0
  3 16  1  0
  3  4  1  0
  5  4  2  0
  6  5  1  0
  7  6  1  0
  8  2  1  0
  8  6  2  0
 10  9  1  0
 11  8  1  0
 11 10  2  0
 12 11  1  0
 13 12  2  0
 13 14  1  0
 14 15  2  0
 15 10  1  0
 16 17  1  0
 17 19  1  0
 17 18  2  0
 19 20  1  0
 20 21  2  0
 21 26  1  0
 21 22  1  0
 23 22  2  0
 24 23  1  0
 25 20  1  0
 25 24  2  0
 27 24  1  0
  4 28  1  0
  5 29  1  0
 12 30  1  0
 13 31  1  0
 14 32  1  0
 15 33  1  0
 19 34  1  0
 22 35  1  0
 26 36  1  0
 26 37  1  0
 27 38  1  0
M  ISO  8  28  14  29  14  30  14  31  14  32  14  33  14  35  14  38   3
M  END
>  <minimizedAffinity>  (1) 
-6.03491354

>  <minimizedRMSD>  (1) 
0.112347186

$$$$
