
     RDKit          3D

 39 41  0  0  0  0  0  0  0  0999 V2000
   42.9790   32.1960   39.4040 Cl  0  0  0  0  0  0  0  0  0  0  0  0
   41.9420   33.5030   39.9280 C   0  0  0  0  0  0  0  0  0  0  0  0
   42.4290   34.6670   40.5260 C   0  0  0  0  0  0  0  0  0  0  0  0
   41.5750   35.6620   40.9190 C   0  0  0  0  0  0  0  0  0  0  0  0
   40.2070   35.5840   40.7540 C   0  0  0  0  0  0  0  0  0  0  0  0
   39.6830   34.4200   40.1520 C   0  0  0  0  0  0  0  0  0  0  0  0
   37.9580   34.2380   39.9040 Cl  0  0  0  0  0  0  0  0  0  0  0  0
   40.5780   33.4390   39.7700 C   0  0  0  0  0  0  0  0  0  0  0  0
   39.8790   31.3090   41.3140 F   0  0  0  0  0  0  0  0  0  0  0  0
   39.7010   31.1660   39.9570 C   0  0  0  0  0  0  0  0  0  0  0  0
   40.0460   32.2310   39.1470 C   0  0  0  0  0  0  0  0  0  0  0  0
   39.8500   32.0480   37.7720 C   0  0  0  0  0  0  0  0  0  0  0  0
   39.3380   30.8500   37.3120 C   0  0  0  0  0  0  0  0  0  0  0  0
   39.0080   29.8110   38.1900 C   0  0  0  0  0  0  0  0  0  0  0  0
   39.1890   29.9550   39.5630 C   0  0  0  0  0  0  0  0  0  0  0  0
   43.8230   34.7390   40.6910 O   0  0  0  0  0  0  0  0  0  0  0  0
   44.3620   34.2250   41.8760 C   0  0  0  0  0  0  0  0  0  0  0  0
   44.0890   33.0950   42.4320 O   0  0  0  0  0  0  0  0  0  0  0  0
   45.3290   34.9770   42.6110 N   0  0  0  0  0  0  0  0  0  0  0  0
   45.6780   34.2400   43.8130 C   0  0  0  0  0  0  0  0  0  0  0  0
   45.2060   34.4640   45.0690 C   0  0  0  0  0  0  0  0  0  0  0  0
   45.6590   33.6560   46.0770 C   0  0  0  0  0  0  0  0  0  0  0  0
   46.5410   32.6910   45.7610 N   0  0  0  0  0  0  0  0  0  0  0  0
   47.0010   32.4800   44.5060 C   0  0  0  0  0  0  0  0  0  0  0  0
   46.5610   33.2740   43.4970 N   0  0  0  0  0  0  0  0  0  0  0  0
   44.2810   35.5240   45.2250 N   0  0  0  0  0  0  0  0  0  0  0  0
   47.9690   31.3970   44.2460 C   0  0  0  0  0  0  0  0  0  0  0  0
   48.6770   31.4560   43.1880 O   0  0  0  0  0  0  0  0  0  0  0  0
   41.9977   36.5634   41.3869 H   0  0  0  0  0  0  0  0  0  0  0  0
   39.5474   36.4014   41.0806 H   0  0  0  0  0  0  0  0  0  0  0  0
   40.1017   32.8516   37.0643 H   0  0  0  0  0  0  0  0  0  0  0  0
   39.1863   30.7096   36.2316 H   0  0  0  0  0  0  0  0  0  0  0  0
   38.6011   28.8702   37.7908 H   0  0  0  0  0  0  0  0  0  0  0  0
   38.9402   29.1576   40.2787 H   0  0  0  0  0  0  0  0  0  0  0  0
   45.7150   35.8910   42.3343 H   0  0  0  0  0  0  0  0  0  0  0  0
   45.3127   33.7916   47.1122 H   0  0  0  0  0  0  0  0  0  0  0  0
   43.8927   35.7360   46.1552 H   0  0  0  0  0  0  0  0  0  0  0  0
   43.9962   36.0833   44.4084 H   0  0  0  0  0  0  0  0  0  0  0  0
   48.0770   30.5581   44.9492 H   0  0  0  0  0  0  0  0  0  0  0  0
  1  2  1  0
  2  3  2  0
  3 16  1  0
  3  4  1  0
  5  4  2  0
  6  5  1  0
  7  6  1  0
  8  2  1  0
  8  6  2  0
 10  9  1  0
 11  8  1  0
 11 10  2  0
 12 11  1  0
 13 12  2  0
 13 14  1  0
 14 15  2  0
 15 10  1  0
 16 17  1  0
 17 18  2  0
 17 19  1  0
 19 20  1  0
 20 21  2  0
 21 26  1  0
 21 22  1  0
 23 22  2  0
 24 23  1  0
 25 20  1  0
 25 24  2  0
 27 24  1  0
 28 27  2  0
  4 29  1  0
  5 30  1  0
 12 31  1  0
 13 32  1  0
 14 33  1  0
 15 34  1  0
 19 35  1  0
 22 36  1  0
 26 37  1  0
 26 38  1  0
 27 39  1  0
M  ISO  8  29  14  30  14  31  14  32  14  33  14  34  14  36  14  39   6
M  END
>  <minimizedAffinity>  (1) 
-5.93963671

>  <minimizedRMSD>  (1) 
0.27730304

$$$$
