
     RDKit          3D

 20 20  0  0  0  0  0  0  0  0999 V2000
   44.3620   35.7590   43.5470 C   0  0  0  0  0  0  0  0  0  0  0  0
   44.1560   34.9380   42.4420 C   0  0  0  0  0  0  0  0  0  0  0  0
   44.5580   33.6180   42.5240 C   0  0  0  0  0  0  0  0  0  0  0  0
   45.1420   33.1540   43.6690 N   0  0  0  0  0  0  0  0  0  0  0  0
   45.3270   33.9890   44.7290 C   0  0  0  0  0  0  0  0  0  0  0  0
   44.9390   35.2780   44.6640 N   0  0  0  0  0  0  0  0  0  0  0  0
   43.5420   35.4140   41.2220 C   0  0  0  0  0  0  0  0  0  0  0  0
   42.8570   34.7220   40.3460 C   0  0  0  0  0  0  0  0  0  0  0  0
   42.2680   35.3170   39.1120 C   0  0  0  0  0  0  0  0  0  0  0  0
   45.9630   33.4770   45.9740 C   0  0  0  0  0  0  0  0  0  0  0  0
   44.0497   36.8130   43.5070 H   0  0  0  0  0  0  0  0  0  0  0  0
   44.4081   32.9423   41.6691 H   0  0  0  0  0  0  0  0  0  0  0  0
   43.6650   36.4851   41.0038 H   0  0  0  0  0  0  0  0  0  0  0  0
   42.7087   33.6477   40.5298 H   0  0  0  0  0  0  0  0  0  0  0  0
   41.5194   36.0732   39.3908 H   0  0  0  0  0  0  0  0  0  0  0  0
   43.0633   35.7902   38.5174 H   0  0  0  0  0  0  0  0  0  0  0  0
   41.7868   34.5265   38.5174 H   0  0  0  0  0  0  0  0  0  0  0  0
   45.4441   33.8947   46.8493 H   0  0  0  0  0  0  0  0  0  0  0  0
   45.8942   32.3794   45.9962 H   0  0  0  0  0  0  0  0  0  0  0  0
   47.0206   33.7786   45.9962 H   0  0  0  0  0  0  0  0  0  0  0  0
  1  6  2  0
  2  3  2  0
  2  1  1  0
  3  4  1  0
  4  5  2  0
  5 10  1  0
  6  5  1  0
  7  2  1  0
  8  7  2  0
  9  8  1  0
  1 11  1  0
  3 12  1  0
  7 13  1  0
  8 14  1  0
  9 15  1  0
  9 16  1  0
  9 17  1  0
 10 18  1  0
 10 19  1  0
 10 20  1  0
M  ISO  8  11  14  12  14  15   8  16   8  17   8  18   8  19   8  20   8
M  END
>  <minimizedAffinity>  (1) 
-3.42473435

>  <minimizedRMSD>  (1) 
0.841895223

$$$$
