
     RDKit          3D

 38 40  0  0  0  0  0  0  0  0999 V2000
   43.6360   33.1750   41.5960 C   0  0  0  0  0  0  0  0  0  0  0  0
   44.2240   34.4370   41.8940 C   0  0  0  0  0  0  0  0  0  0  0  0
   43.5900   35.5990   41.4640 C   0  0  0  0  0  0  0  0  0  0  0  0
   42.4250   35.4610   40.7710 N   0  0  0  0  0  0  0  0  0  0  0  0
   41.8980   34.2520   40.5070 C   0  0  0  0  0  0  0  0  0  0  0  0
   42.5020   33.1430   40.9170 N   0  0  0  0  0  0  0  0  0  0  0  0
   39.4860   33.6540   41.7410 F   0  0  0  0  0  0  0  0  0  0  0  0
   39.4510   33.8850   40.4090 C   0  0  0  0  0  0  0  0  0  0  0  0
   40.6540   34.1890   39.7630 C   0  0  0  0  0  0  0  0  0  0  0  0
   40.6910   34.4370   38.3980 C   0  0  0  0  0  0  0  0  0  0  0  0
   39.4980   34.3760   37.6870 C   0  0  0  0  0  0  0  0  0  0  0  0
   38.2830   34.0710   38.3290 C   0  0  0  0  0  0  0  0  0  0  0  0
   38.2650   33.8260   39.6940 C   0  0  0  0  0  0  0  0  0  0  0  0
   45.4840   34.5320   42.6490 C   0  0  0  0  0  0  0  0  0  0  0  0
   46.6900   34.3170   42.1130 C   0  0  0  0  0  0  0  0  0  0  0  0
   47.8880   34.4570   43.0480 C   0  0  0  0  0  0  0  0  0  0  0  0
   48.6360   32.0100   43.2140 C   0  0  0  0  0  0  0  0  0  0  0  0
   48.8060   33.3160   42.8130 C   0  0  0  0  0  0  0  0  0  0  0  0
   49.9810   33.6040   42.1060 C   0  0  0  0  0  0  0  0  0  0  0  0
   50.9340   32.6750   41.8060 C   0  0  0  0  0  0  0  0  0  0  0  0
   50.7190   31.3710   42.2300 C   0  0  0  0  0  0  0  0  0  0  0  0
   49.5810   31.0510   42.9260 C   0  0  0  0  0  0  0  0  0  0  0  0
   46.4480   31.4980   44.5340 N   0  0  0  0  0  0  0  0  0  0  0  0
   47.4270   31.7350   43.9340 C   0  0  0  0  0  0  0  0  0  0  0  0
   44.1172   32.2422   41.9252 H   0  0  0  0  0  0  0  0  0  0  0  0
   44.0137   36.5918   41.6757 H   0  0  0  0  0  0  0  0  0  0  0  0
   41.6385   34.6753   37.8925 H   0  0  0  0  0  0  0  0  0  0  0  0
   39.5036   34.5694   36.6041 H   0  0  0  0  0  0  0  0  0  0  0  0
   37.3493   34.0270   37.7490 H   0  0  0  0  0  0  0  0  0  0  0  0
   37.3198   33.5875   40.2036 H   0  0  0  0  0  0  0  0  0  0  0  0
   45.4304   34.7950   43.7157 H   0  0  0  0  0  0  0  0  0  0  0  0
   46.8124   34.0527   41.0523 H   0  0  0  0  0  0  0  0  0  0  0  0
   48.4111   35.4024   42.8415 H   0  0  0  0  0  0  0  0  0  0  0  0
   47.5502   34.4587   44.0948 H   0  0  0  0  0  0  0  0  0  0  0  0
   50.1446   34.6397   41.7734 H   0  0  0  0  0  0  0  0  0  0  0  0
   51.8410   32.9498   41.2476 H   0  0  0  0  0  0  0  0  0  0  0  0
   51.4631   30.5921   42.0073 H   0  0  0  0  0  0  0  0  0  0  0  0
   49.4214   30.0146   43.2584 H   0  0  0  0  0  0  0  0  0  0  0  0
  1  2  2  0
  2 14  1  0
  3  2  1  0
  4  3  2  0
  5  4  1  0
  5  6  2  0
  6  1  1  0
  8  7  1  0
  9  8  2  0
  9  5  1  0
 10  9  1  0
 11 12  1  0
 11 10  2  0
 12 13  2  0
 13  8  1  0
 15 14  2  0
 15 16  1  0
 17 24  1  0
 18 16  1  0
 18 17  2  0
 19 18  1  0
 20 19  2  0
 20 21  1  0
 21 22  2  0
 22 17  1  0
 24 23  3  0
  1 25  1  0
  3 26  1  0
 10 27  1  0
 11 28  1  0
 12 29  1  0
 13 30  1  0
 14 31  1  0
 15 32  1  0
 16 33  1  0
 16 34  1  0
 19 35  1  0
 20 36  1  0
 21 37  1  0
 22 38  1  0
M  ISO  8  25  14  26  14  27  14  28  14  29  14  30  14  33   8  34   8
M  ISO  4  35  14  36  14  37  14  38  14
M  END
>  <minimizedAffinity>  (1) 
-5.85402393

>  <minimizedRMSD>  (1) 
0.707929909

$$$$
