
     RDKit          3D

 50 54  0  0  1  0  0  0  0  0999 V2000
   48.2700   34.9440   42.1110 C   0  0  0  0  0  0  0  0  0  0  0  0
   49.3350   34.1910   41.5000 N   0  0  0  0  0  0  0  0  0  0  0  0
   50.2890   33.7840   42.4720 C   0  0  0  0  0  0  0  0  0  0  0  0
   50.8100   32.4310   42.0840 C   0  0  0  0  0  0  0  0  0  0  0  0
   49.7490   31.9030   41.1770 C   0  0  0  0  0  0  0  0  0  0  0  0
   48.8160   33.0260   40.8670 C   0  0  2  0  0  0  0  0  0  0  0  0
   48.5480   33.1660   39.4550 N   0  0  0  0  0  0  0  0  0  0  0  0
   47.6500   34.0410   38.9520 C   0  0  0  0  0  0  0  0  0  0  0  0
   47.6390   33.9200   37.6100 N   0  0  0  0  0  0  0  0  0  0  0  0
   48.5140   32.9860   37.2750 C   0  0  0  0  0  0  0  0  0  0  0  0
   48.9820   32.3880   36.1110 C   0  0  0  0  0  0  0  0  0  0  0  0
   49.9090   31.4270   36.0470 N   0  0  0  0  0  0  0  0  0  0  0  0
   50.4530   30.9790   37.1900 C   0  0  0  0  0  0  0  0  0  0  0  0
   50.0570   31.5050   38.3860 N   0  0  0  0  0  0  0  0  0  0  0  0
   49.1100   32.4840   38.4130 C   0  0  0  0  0  0  0  0  0  0  0  0
   45.8100   35.0030   42.0880 C   0  0  0  0  0  0  0  0  0  0  0  0
   46.9430   34.6620   41.4500 C   0  0  0  0  0  0  0  0  0  0  0  0
   44.1690   33.5450   40.7780 C   0  0  0  0  0  0  0  0  0  0  0  0
   44.4910   34.7390   41.4600 C   0  0  0  0  0  0  0  0  0  0  0  0
   43.5110   35.7540   41.5600 C   0  0  0  0  0  0  0  0  0  0  0  0
   42.3030   35.5230   40.9880 N   0  0  0  0  0  0  0  0  0  0  0  0
   42.0390   34.3870   40.3540 C   0  0  0  0  0  0  0  0  0  0  0  0
   42.9690   33.4270   40.2620 N   0  0  0  0  0  0  0  0  0  0  0  0
   39.8130   33.7280   41.8570 F   0  0  0  0  0  0  0  0  0  0  0  0
   39.6270   33.8580   40.5300 C   0  0  0  0  0  0  0  0  0  0  0  0
   40.7190   34.1880   39.7530 C   0  0  0  0  0  0  0  0  0  0  0  0
   40.6230   34.3440   38.3680 C   0  0  0  0  0  0  0  0  0  0  0  0
   39.3710   34.1560   37.7880 C   0  0  0  0  0  0  0  0  0  0  0  0
   38.2460   33.8200   38.5690 C   0  0  0  0  0  0  0  0  0  0  0  0
   38.3910   33.6740   39.9410 C   0  0  0  0  0  0  0  0  0  0  0  0
   48.2044   34.6717   43.1747 H   0  0  0  0  0  0  0  0  0  0  0  0
   48.4932   36.0147   41.9938 H   0  0  0  0  0  0  0  0  0  0  0  0
   51.1180   34.5063   42.5047 H   0  0  0  0  0  0  0  0  0  0  0  0
   49.8209   33.7388   43.4664 H   0  0  0  0  0  0  0  0  0  0  0  0
   51.7724   32.5151   41.5579 H   0  0  0  0  0  0  0  0  0  0  0  0
   51.0015   31.7787   42.9488 H   0  0  0  0  0  0  0  0  0  0  0  0
   50.2032   31.5263   40.2487 H   0  0  0  0  0  0  0  0  0  0  0  0
   49.2082   31.0748   41.6583 H   0  0  0  0  0  0  0  0  0  0  0  0
   47.8139   32.8231   41.2728 H   0  0  0  0  0  0  0  0  0  0  0  0
   47.0316   34.7357   39.5394 H   0  0  0  0  0  0  0  0  0  0  0  0
   48.5524   32.7356   35.1599 H   0  0  0  0  0  0  0  0  0  0  0  0
   51.2174   30.1885   37.1627 H   0  0  0  0  0  0  0  0  0  0  0  0
   45.8604   35.4791   43.0784 H   0  0  0  0  0  0  0  0  0  0  0  0
   46.9034   34.1841   40.4600 H   0  0  0  0  0  0  0  0  0  0  0  0
   44.9062   32.7342   40.6820 H   0  0  0  0  0  0  0  0  0  0  0  0
   43.7213   36.6982   42.0836 H   0  0  0  0  0  0  0  0  0  0  0  0
   41.5016   34.6050   37.7597 H   0  0  0  0  0  0  0  0  0  0  0  0
   39.2575   34.2718   36.7000 H   0  0  0  0  0  0  0  0  0  0  0  0
   37.2638   33.6752   38.0954 H   0  0  0  0  0  0  0  0  0  0  0  0
   37.5208   33.4114   40.5605 H   0  0  0  0  0  0  0  0  0  0  0  0
  2  1  1  0
  2  3  1  0
  4  3  1  0
  5  4  1  0
  6  5  1  0
  6  2  1  0
  7  6  1  0
  8  7  1  0
  9  8  2  0
 10  9  1  0
 10 15  2  0
 11 10  1  0
 12 11  2  0
 12 13  1  0
 13 14  2  0
 14 15  1  0
 15  7  1  0
 17 16  2  0
 17  1  1  0
 18 19  2  0
 19 20  1  0
 19 16  1  0
 21 20  2  0
 22 21  1  0
 23 22  2  0
 23 18  1  0
 25 24  1  0
 26 22  1  0
 26 25  2  0
 27 26  1  0
 28 27  2  0
 28 29  1  0
 29 30  2  0
 30 25  1  0
  1 31  1  0
  1 32  1  0
  3 33  1  0
  3 34  1  0
  4 35  1  0
  4 36  1  0
  5 37  1  0
  5 38  1  0
  6 39  1  1
  8 40  1  0
 11 41  1  0
 13 42  1  0
 16 43  1  0
 17 44  1  0
 18 45  1  0
 20 46  1  0
 27 47  1  0
 28 48  1  0
 29 49  1  0
 30 50  1  0
M  ISO  8  31   8  32   8  33  13  34  13  35  13  36  13  37  13  38  13
M  ISO  8  39  13  40  14  41  14  42  14  45  14  46  14  47  14  48  14
M  ISO  2  49  14  50  14
M  END
>  <minimizedAffinity>  (1) 
-6.98812246

>  <minimizedRMSD>  (1) 
0.241655976

$$$$
