
     RDKit          3D

 54 57  0  0  1  0  0  0  0  0999 V2000
   47.9290   34.8620   42.3690 C   0  0  0  0  0  0  0  0  0  0  0  0
   49.0720   34.3790   41.6440 N   0  0  0  0  0  0  0  0  0  0  0  0
   50.2180   34.2920   42.4840 C   0  0  0  0  0  0  0  0  0  0  0  0
   50.9930   33.0660   42.1170 C   0  0  0  0  0  0  0  0  0  0  0  0
   49.9950   32.2220   41.3820 C   0  0  0  0  0  0  0  0  0  0  0  0
   48.8330   33.1090   41.0310 C   0  0  2  0  0  0  0  0  0  0  0  0
   48.5910   33.2090   39.6550 N   0  0  0  0  0  0  0  0  0  0  0  0
   48.5320   34.4730   39.0720 C   0  0  0  0  0  0  0  0  0  0  0  0
   48.3330   34.4360   37.6020 C   0  0  0  0  0  0  0  0  0  0  0  0
   47.1020   33.6040   37.3370 C   0  0  0  0  0  0  0  0  0  0  0  0
   47.4310   32.1920   37.7230 C   0  0  0  0  0  0  0  0  0  0  0  0
   48.2830   32.0570   38.9320 C   0  0  0  0  0  0  0  0  0  0  0  0
   45.4970   35.1140   42.0800 C   0  0  0  0  0  0  0  0  0  0  0  0
   46.6360   34.5550   41.6740 C   0  0  0  0  0  0  0  0  0  0  0  0
   43.9950   33.7190   40.5710 C   0  0  0  0  0  0  0  0  0  0  0  0
   44.2110   34.8320   41.4160 C   0  0  0  0  0  0  0  0  0  0  0  0
   43.1470   35.7350   41.6480 C   0  0  0  0  0  0  0  0  0  0  0  0
   41.9650   35.4720   41.0350 N   0  0  0  0  0  0  0  0  0  0  0  0
   41.7920   34.4140   40.2450 C   0  0  0  0  0  0  0  0  0  0  0  0
   42.8020   33.5680   40.0310 N   0  0  0  0  0  0  0  0  0  0  0  0
   39.6010   33.5220   41.6770 F   0  0  0  0  0  0  0  0  0  0  0  0
   39.4160   33.7440   40.3600 C   0  0  0  0  0  0  0  0  0  0  0  0
   40.4890   34.1900   39.6140 C   0  0  0  0  0  0  0  0  0  0  0  0
   40.3900   34.4460   38.2440 C   0  0  0  0  0  0  0  0  0  0  0  0
   39.1610   34.2350   37.6460 C   0  0  0  0  0  0  0  0  0  0  0  0
   38.0420   33.7800   38.3830 C   0  0  0  0  0  0  0  0  0  0  0  0
   38.1990   33.5380   39.7560 C   0  0  0  0  0  0  0  0  0  0  0  0
   47.9162   34.3899   43.3625 H   0  0  0  0  0  0  0  0  0  0  0  0
   48.0175   35.9560   42.4420 H   0  0  0  0  0  0  0  0  0  0  0  0
   50.8476   35.1831   42.3439 H   0  0  0  0  0  0  0  0  0  0  0  0
   49.9059   34.2354   43.5373 H   0  0  0  0  0  0  0  0  0  0  0  0
   51.8450   33.3197   41.4692 H   0  0  0  0  0  0  0  0  0  0  0  0
   51.4220   32.5549   42.9915 H   0  0  0  0  0  0  0  0  0  0  0  0
   50.4481   31.8148   40.4661 H   0  0  0  0  0  0  0  0  0  0  0  0
   49.6661   31.3766   42.0042 H   0  0  0  0  0  0  0  0  0  0  0  0
   47.9053   32.6625   41.4183 H   0  0  0  0  0  0  0  0  0  0  0  0
   47.6951   35.0262   39.5232 H   0  0  0  0  0  0  0  0  0  0  0  0
   49.5006   34.9607   39.2561 H   0  0  0  0  0  0  0  0  0  0  0  0
   48.1885   35.4558   37.2158 H   0  0  0  0  0  0  0  0  0  0  0  0
   49.2112   34.0030   37.1007 H   0  0  0  0  0  0  0  0  0  0  0  0
   46.2599   33.9735   37.9406 H   0  0  0  0  0  0  0  0  0  0  0  0
   46.8113   33.6622   36.2777 H   0  0  0  0  0  0  0  0  0  0  0  0
   46.4866   31.6597   37.9093 H   0  0  0  0  0  0  0  0  0  0  0  0
   48.0106   31.7709   36.8883 H   0  0  0  0  0  0  0  0  0  0  0  0
   47.7675   31.3694   39.6187 H   0  0  0  0  0  0  0  0  0  0  0  0
   49.2528   31.7123   38.5439 H   0  0  0  0  0  0  0  0  0  0  0  0
   45.5164   35.8057   42.9351 H   0  0  0  0  0  0  0  0  0  0  0  0
   46.6280   33.8613   40.8204 H   0  0  0  0  0  0  0  0  0  0  0  0
   44.8012   32.9982   40.3696 H   0  0  0  0  0  0  0  0  0  0  0  0
   43.2724   36.6135   42.2980 H   0  0  0  0  0  0  0  0  0  0  0  0
   41.2548   34.8011   37.6644 H   0  0  0  0  0  0  0  0  0  0  0  0
   39.0503   34.4260   36.5684 H   0  0  0  0  0  0  0  0  0  0  0  0
   37.0714   33.6197   37.8908 H   0  0  0  0  0  0  0  0  0  0  0  0
   37.3450   33.1822   40.3510 H   0  0  0  0  0  0  0  0  0  0  0  0
  2  1  1  0
  2  3  1  0
  4  3  1  0
  5  4  1  0
  6  5  1  0
  6  2  1  0
  7  6  1  0
  8  7  1  0
  9  8  1  0
 10  9  1  0
 10 11  1  0
 11 12  1  0
 12  7  1  0
 14 13  2  0
 14  1  1  0
 15 16  2  0
 16 17  1  0
 16 13  1  0
 18 17  2  0
 19 18  1  0
 20 19  2  0
 20 15  1  0
 22 21  1  0
 23 19  1  0
 23 22  2  0
 24 23  1  0
 25 24  2  0
 25 26  1  0
 26 27  2  0
 27 22  1  0
  1 28  1  0
  1 29  1  0
  3 30  1  0
  3 31  1  0
  4 32  1  0
  4 33  1  0
  5 34  1  0
  5 35  1  0
  6 36  1  1
  8 37  1  0
  8 38  1  0
  9 39  1  0
  9 40  1  0
 10 41  1  0
 10 42  1  0
 11 43  1  0
 11 44  1  0
 12 45  1  0
 12 46  1  0
 13 47  1  0
 14 48  1  0
 15 49  1  0
 17 50  1  0
 24 51  1  0
 25 52  1  0
 26 53  1  0
 27 54  1  0
M  ISO  8  28   8  29   8  30  13  31  13  32  13  33  13  34  13  35  13
M  ISO  8  36  13  37  13  38  13  39  13  40  13  41  13  42  13  43  13
M  ISO  8  44  13  45  13  46  13  49  14  50  14  51  14  52  14  53  14
M  ISO  1  54  14
M  END
>  <minimizedAffinity>  (1) 
-6.69798613

>  <minimizedRMSD>  (1) 
0.403612107

$$$$
