
     RDKit          3D

 46 49  0  0  1  0  0  0  0  0999 V2000
   48.0730   34.8820   42.2900 C   0  0  0  0  0  0  0  0  0  0  0  0
   49.2050   34.3490   41.5740 N   0  0  0  0  0  0  0  0  0  0  0  0
   50.2690   34.0310   42.4630 C   0  0  0  0  0  0  0  0  0  0  0  0
   50.9230   32.7660   42.0000 C   0  0  0  0  0  0  0  0  0  0  0  0
   49.9050   32.1510   41.1070 C   0  0  0  0  0  0  0  0  0  0  0  0
   48.8570   33.1940   40.8130 C   0  0  2  0  0  0  0  0  0  0  0  0
   48.7070   33.4370   39.3550 C   0  0  0  0  0  0  0  0  0  0  0  0
   48.2420   34.3850   38.4360 C   0  0  0  0  0  0  0  0  0  0  0  0
   48.4490   33.8760   37.1690 C   0  0  0  0  0  0  0  0  0  0  0  0
   49.0170   32.6640   37.3170 N   0  0  0  0  0  0  0  0  0  0  0  0
   49.1740   32.3960   38.6040 N   0  0  0  0  0  0  0  0  0  0  0  0
   45.6300   35.0740   42.1130 C   0  0  0  0  0  0  0  0  0  0  0  0
   46.7700   34.5920   41.6030 C   0  0  0  0  0  0  0  0  0  0  0  0
   44.0590   33.6610   40.6830 C   0  0  0  0  0  0  0  0  0  0  0  0
   44.3290   34.8070   41.4610 C   0  0  0  0  0  0  0  0  0  0  0  0
   43.3080   35.7590   41.6340 C   0  0  0  0  0  0  0  0  0  0  0  0
   42.1090   35.5150   41.0350 N   0  0  0  0  0  0  0  0  0  0  0  0
   41.8970   34.4210   40.3100 C   0  0  0  0  0  0  0  0  0  0  0  0
   42.8660   33.5160   40.1450 N   0  0  0  0  0  0  0  0  0  0  0  0
   39.6770   33.6570   41.7800 F   0  0  0  0  0  0  0  0  0  0  0  0
   39.5000   33.8290   40.4550 C   0  0  0  0  0  0  0  0  0  0  0  0
   40.5910   34.2110   39.6890 C   0  0  0  0  0  0  0  0  0  0  0  0
   40.4970   34.4100   38.3110 C   0  0  0  0  0  0  0  0  0  0  0  0
   39.2510   34.2090   37.7220 C   0  0  0  0  0  0  0  0  0  0  0  0
   38.1370   33.8240   38.4720 C   0  0  0  0  0  0  0  0  0  0  0  0
   38.2700   33.6320   39.8540 C   0  0  0  0  0  0  0  0  0  0  0  0
   48.0490   34.4353   43.2949 H   0  0  0  0  0  0  0  0  0  0  0  0
   48.1908   35.9747   42.3359 H   0  0  0  0  0  0  0  0  0  0  0  0
   51.0053   34.8483   42.4657 H   0  0  0  0  0  0  0  0  0  0  0  0
   49.8773   33.8978   43.4822 H   0  0  0  0  0  0  0  0  0  0  0  0
   51.8497   32.9824   41.4483 H   0  0  0  0  0  0  0  0  0  0  0  0
   51.2153   32.1075   42.8313 H   0  0  0  0  0  0  0  0  0  0  0  0
   50.3789   31.8227   40.1702 H   0  0  0  0  0  0  0  0  0  0  0  0
   49.4490   31.2750   41.5914 H   0  0  0  0  0  0  0  0  0  0  0  0
   47.8544   32.8573   41.1153 H   0  0  0  0  0  0  0  0  0  0  0  0
   47.7929   35.3593   38.6791 H   0  0  0  0  0  0  0  0  0  0  0  0
   48.1973   34.3680   36.2179 H   0  0  0  0  0  0  0  0  0  0  0  0
   49.2886   32.0391   36.5446 H   0  0  0  0  0  0  0  0  0  0  0  0
   45.6610   35.6783   43.0316 H   0  0  0  0  0  0  0  0  0  0  0  0
   46.7521   33.9863   40.6849 H   0  0  0  0  0  0  0  0  0  0  0  0
   44.8360   32.8979   40.5279 H   0  0  0  0  0  0  0  0  0  0  0  0
   43.4718   36.6679   42.2315 H   0  0  0  0  0  0  0  0  0  0  0  0
   41.3704   34.7129   37.7149 H   0  0  0  0  0  0  0  0  0  0  0  0
   39.1412   34.3573   36.6376 H   0  0  0  0  0  0  0  0  0  0  0  0
   37.1638   33.6728   37.9821 H   0  0  0  0  0  0  0  0  0  0  0  0
   37.4019   33.3267   40.4566 H   0  0  0  0  0  0  0  0  0  0  0  0
  2  1  1  0
  2  3  1  0
  4  3  1  0
  5  4  1  0
  6  5  1  0
  6  2  1  0
  7  6  1  0
  8  7  1  0
  9 10  1  0
  9  8  2  0
 10 11  1  0
 11  7  2  0
 13 12  2  0
 13  1  1  0
 14 15  2  0
 15 16  1  0
 15 12  1  0
 17 16  2  0
 18 17  1  0
 19 18  2  0
 19 14  1  0
 21 20  1  0
 22 18  1  0
 22 21  2  0
 23 22  1  0
 24 23  2  0
 24 25  1  0
 25 26  2  0
 26 21  1  0
  1 27  1  0
  1 28  1  0
  3 29  1  0
  3 30  1  0
  4 31  1  0
  4 32  1  0
  5 33  1  0
  5 34  1  0
  6 35  1  1
  8 36  1  0
  9 37  1  0
 10 38  1  0
 12 39  1  0
 13 40  1  0
 14 41  1  0
 16 42  1  0
 23 43  1  0
 24 44  1  0
 25 45  1  0
 26 46  1  0
M  ISO  8  27   8  28   8  29  13  30  13  31  13  32  13  33  13  34  13
M  ISO  8  35  13  36  14  37  14  38   9  41  14  42  14  43  14  44  14
M  ISO  2  45  14  46  14
M  END
>  <minimizedAffinity>  (1) 
-6.61289787

>  <minimizedRMSD>  (1) 
0.143059388

$$$$
