
     RDKit          3D

 52 55  0  0  1  0  0  0  0  0999 V2000
   47.3570   35.0300   42.5090 C   0  0  0  0  0  0  0  0  0  0  0  0
   48.5760   34.7400   41.7850 N   0  0  0  0  0  0  0  0  0  0  0  0
   49.6900   34.8020   42.7010 C   0  0  0  0  0  0  0  0  0  0  0  0
   50.6890   33.7530   42.2900 C   0  0  0  0  0  0  0  0  0  0  0  0
   49.8500   32.7700   41.5480 C   0  0  0  0  0  0  0  0  0  0  0  0
   48.5400   33.4380   41.2140 C   0  0  2  0  0  0  0  0  0  0  0  0
   47.6080   32.3150   39.1140 C   0  0  0  0  0  0  0  0  0  0  0  0
   48.2240   33.3580   39.7730 C   0  0  0  0  0  0  0  0  0  0  0  0
   48.5680   34.4460   38.9580 C   0  0  0  0  0  0  0  0  0  0  0  0
   48.3350   34.5260   37.6030 C   0  0  0  0  0  0  0  0  0  0  0  0
   47.7220   33.4740   36.9760 C   0  0  0  0  0  0  0  0  0  0  0  0
   47.3740   32.3910   37.7550 C   0  0  0  0  0  0  0  0  0  0  0  0
   47.1510   30.9350   40.0490 S   0  0  0  0  0  0  0  0  0  0  0  0
   46.8780   29.7320   39.1730 O   0  0  0  0  0  0  0  0  0  0  0  0
   45.7920   31.2450   40.6750 O   0  0  0  0  0  0  0  0  0  0  0  0
   44.9810   35.2910   41.9260 C   0  0  0  0  0  0  0  0  0  0  0  0
   46.1340   34.6230   41.7360 C   0  0  0  0  0  0  0  0  0  0  0  0
   43.7640   34.0410   40.0680 C   0  0  0  0  0  0  0  0  0  0  0  0
   43.7580   34.9220   41.1890 C   0  0  0  0  0  0  0  0  0  0  0  0
   42.5360   35.4550   41.6090 C   0  0  0  0  0  0  0  0  0  0  0  0
   41.4040   35.1130   40.9350 N   0  0  0  0  0  0  0  0  0  0  0  0
   41.4480   34.2850   39.8900 C   0  0  0  0  0  0  0  0  0  0  0  0
   42.6230   33.7600   39.4690 N   0  0  0  0  0  0  0  0  0  0  0  0
   39.7140   32.3590   40.8910 F   0  0  0  0  0  0  0  0  0  0  0  0
   39.3650   32.9630   39.7160 C   0  0  0  0  0  0  0  0  0  0  0  0
   40.2180   33.9360   39.1880 C   0  0  0  0  0  0  0  0  0  0  0  0
   39.9360   34.5880   38.0090 C   0  0  0  0  0  0  0  0  0  0  0  0
   38.7530   34.2330   37.3600 C   0  0  0  0  0  0  0  0  0  0  0  0
   37.8790   33.2620   37.8660 C   0  0  0  0  0  0  0  0  0  0  0  0
   38.1960   32.6260   39.0560 C   0  0  0  0  0  0  0  0  0  0  0  0
   47.3721   34.4837   43.4636 H   0  0  0  0  0  0  0  0  0  0  0  0
   47.3094   36.1165   42.6738 H   0  0  0  0  0  0  0  0  0  0  0  0
   50.1548   35.7980   42.6566 H   0  0  0  0  0  0  0  0  0  0  0  0
   49.3484   34.6218   43.7310 H   0  0  0  0  0  0  0  0  0  0  0  0
   51.4671   34.1800   41.6401 H   0  0  0  0  0  0  0  0  0  0  0  0
   51.2296   33.3102   43.1395 H   0  0  0  0  0  0  0  0  0  0  0  0
   50.3610   32.4657   40.6227 H   0  0  0  0  0  0  0  0  0  0  0  0
   49.6776   31.8732   42.1612 H   0  0  0  0  0  0  0  0  0  0  0  0
   47.6828   32.9107   41.6581 H   0  0  0  0  0  0  0  0  0  0  0  0
   49.0628   35.3028   39.4387 H   0  0  0  0  0  0  0  0  0  0  0  0
   48.6358   35.4185   37.0347 H   0  0  0  0  0  0  0  0  0  0  0  0
   47.5158   33.4923   35.8956 H   0  0  0  0  0  0  0  0  0  0  0  0
   46.8813   31.5379   37.2657 H   0  0  0  0  0  0  0  0  0  0  0  0
   48.1601   30.6767   40.9389 H   0  0  0  0  0  0  0  0  0  0  0  0
   44.9504   36.1253   42.6423 H   0  0  0  0  0  0  0  0  0  0  0  0
   46.1807   33.7875   41.0220 H   0  0  0  0  0  0  0  0  0  0  0  0
   44.7063   33.6022   39.7080 H   0  0  0  0  0  0  0  0  0  0  0  0
   42.4900   36.1390   42.4693 H   0  0  0  0  0  0  0  0  0  0  0  0
   40.6114   35.3528   37.5979 H   0  0  0  0  0  0  0  0  0  0  0  0
   38.4968   34.7346   36.4151 H   0  0  0  0  0  0  0  0  0  0  0  0
   36.9545   33.0080   37.3267 H   0  0  0  0  0  0  0  0  0  0  0  0
   37.5246   31.8604   39.4721 H   0  0  0  0  0  0  0  0  0  0  0  0
  2  1  1  0
  2  3  1  0
  4  3  1  0
  5  4  1  0
  6  5  1  0
  6  2  1  0
  7  8  2  0
  7 13  1  0
  8  6  1  0
  9  8  1  0
 10  9  2  0
 11 10  1  0
 11 12  2  0
 12  7  1  0
 13 15  2  0
 14 13  2  0
 17 16  2  0
 17  1  1  0
 18 19  2  0
 19 20  1  0
 19 16  1  0
 21 20  2  0
 22 21  1  0
 23 22  2  0
 23 18  1  0
 25 24  1  0
 26 25  2  0
 26 22  1  0
 27 26  1  0
 28 29  1  0
 28 27  2  0
 29 30  2  0
 30 25  1  0
  1 31  1  0
  1 32  1  0
  3 33  1  0
  3 34  1  0
  4 35  1  0
  4 36  1  0
  5 37  1  0
  5 38  1  0
  6 39  1  1
  9 40  1  0
 10 41  1  0
 11 42  1  0
 12 43  1  0
 13 44  1  0
 16 45  1  0
 17 46  1  0
 18 47  1  0
 20 48  1  0
 27 49  1  0
 28 50  1  0
 29 51  1  0
 30 52  1  0
M  ISO  8  31   8  32   8  33  13  34  13  35  13  36  13  37  13  38  13
M  ISO  8  39  13  40  14  41  14  42  14  43  14  44  11  47  14  48  14
M  ISO  4  49  14  50  14  51  14  52  14
M  END
>  <minimizedAffinity>  (1) 
-6.45385933

>  <minimizedRMSD>  (1) 
1.69888735

$$$$
