
     RDKit          3D

 41 43  0  0  1  0  0  0  0  0999 V2000
   45.6890   34.9780   42.1300 C   0  0  0  0  0  0  0  0  0  0  0  0
   46.8550   34.6840   41.5380 C   0  0  0  0  0  0  0  0  0  0  0  0
   44.1190   33.6250   40.6900 C   0  0  0  0  0  0  0  0  0  0  0  0
   44.3930   34.7710   41.4830 C   0  0  0  0  0  0  0  0  0  0  0  0
   43.3870   35.7260   41.6440 C   0  0  0  0  0  0  0  0  0  0  0  0
   42.1900   35.5080   41.0310 N   0  0  0  0  0  0  0  0  0  0  0  0
   41.9660   34.4230   40.2940 C   0  0  0  0  0  0  0  0  0  0  0  0
   42.9280   33.4900   40.1290 N   0  0  0  0  0  0  0  0  0  0  0  0
   39.7430   33.6310   41.7390 F   0  0  0  0  0  0  0  0  0  0  0  0
   39.5690   33.8390   40.4130 C   0  0  0  0  0  0  0  0  0  0  0  0
   40.6650   34.2370   39.6580 C   0  0  0  0  0  0  0  0  0  0  0  0
   40.5710   34.4690   38.2990 C   0  0  0  0  0  0  0  0  0  0  0  0
   39.3310   34.2920   37.6990 C   0  0  0  0  0  0  0  0  0  0  0  0
   38.2050   33.8890   38.4340 C   0  0  0  0  0  0  0  0  0  0  0  0
   38.3400   33.6640   39.8110 C   0  0  0  0  0  0  0  0  0  0  0  0
   48.1570   34.9200   42.2560 C   0  0  0  0  0  0  0  0  0  0  0  0
   49.2810   34.3410   41.5820 N   0  0  0  0  0  0  0  0  0  0  0  0
   50.2970   33.9630   42.5150 C   0  0  0  0  0  0  0  0  0  0  0  0
   50.9820   32.7450   41.9680 C   0  0  0  0  0  0  0  0  0  0  0  0
   49.9160   32.1160   41.1100 C   0  0  0  0  0  0  0  0  0  0  0  0
   48.9160   33.2030   40.8080 C   0  0  2  0  0  0  0  0  0  0  0  0
   48.8180   33.4790   39.3900 N   0  0  0  0  0  0  0  0  0  0  0  0
   45.7072   35.3937   43.1483 H   0  0  0  0  0  0  0  0  0  0  0  0
   46.8606   34.2672   40.5200 H   0  0  0  0  0  0  0  0  0  0  0  0
   44.8910   32.8553   40.5432 H   0  0  0  0  0  0  0  0  0  0  0  0
   43.5563   36.6290   42.2489 H   0  0  0  0  0  0  0  0  0  0  0  0
   41.4474   34.7828   37.7130 H   0  0  0  0  0  0  0  0  0  0  0  0
   39.2285   34.4725   36.6188 H   0  0  0  0  0  0  0  0  0  0  0  0
   37.2329   33.7520   37.9377 H   0  0  0  0  0  0  0  0  0  0  0  0
   37.4712   33.3498   40.4080 H   0  0  0  0  0  0  0  0  0  0  0  0
   48.3193   36.0047   42.3400 H   0  0  0  0  0  0  0  0  0  0  0  0
   48.0809   34.4385   43.2421 H   0  0  0  0  0  0  0  0  0  0  0  0
   51.0228   34.7813   42.6318 H   0  0  0  0  0  0  0  0  0  0  0  0
   49.8577   33.7502   43.5008 H   0  0  0  0  0  0  0  0  0  0  0  0
   51.8612   33.0216   41.3675 H   0  0  0  0  0  0  0  0  0  0  0  0
   51.3625   32.0723   42.7508 H   0  0  0  0  0  0  0  0  0  0  0  0
   50.3553   31.7334   40.1770 H   0  0  0  0  0  0  0  0  0  0  0  0
   49.4399   31.2678   41.6236 H   0  0  0  0  0  0  0  0  0  0  0  0
   47.9016   32.8829   41.0883 H   0  0  0  0  0  0  0  0  0  0  0  0
   48.4765   34.4406   39.2502 H   0  0  0  0  0  0  0  0  0  0  0  0
   49.7464   33.3777   38.9555 H   0  0  0  0  0  0  0  0  0  0  0  0
  2  1  2  0
  2 16  1  0
  3  4  2  0
  4  5  1  0
  4  1  1  0
  6  5  2  0
  7  6  1  0
  8  7  2  0
  8  3  1  0
 10  9  1  0
 11  7  1  0
 11 10  2  0
 12 11  1  0
 13 12  2  0
 13 14  1  0
 14 15  2  0
 15 10  1  0
 17 16  1  0
 17 18  1  0
 19 18  1  0
 20 19  1  0
 21 20  1  0
 21 17  1  0
 22 21  1  0
  1 23  1  0
  2 24  1  0
  3 25  1  0
  5 26  1  0
 12 27  1  0
 13 28  1  0
 14 29  1  0
 15 30  1  0
 16 31  1  0
 16 32  1  0
 18 33  1  0
 18 34  1  0
 19 35  1  0
 19 36  1  0
 20 37  1  0
 20 38  1  0
 21 39  1  1
 22 40  1  0
 22 41  1  0
M  ISO  8  25  14  26  14  27  14  28  14  29  14  30  14  31   8  32   8
M  ISO  8  33  13  34  13  35  13  36  13  37  13  38  13  39  13  40   5
M  ISO  1  41   5
M  END
>  <minimizedAffinity>  (1) 
-6.2958374

>  <minimizedRMSD>  (1) 
0.0371280015

$$$$
