
     RDKit          3D

 42 44  0  0  1  0  0  0  0  0999 V2000
   44.0690   33.5730   40.6470 C   0  0  0  0  0  0  0  0  0  0  0  0
   44.3560   34.7110   41.4310 C   0  0  0  0  0  0  0  0  0  0  0  0
   43.3580   35.6810   41.5990 C   0  0  0  0  0  0  0  0  0  0  0  0
   42.1570   35.4760   40.9960 N   0  0  0  0  0  0  0  0  0  0  0  0
   41.9210   34.3760   40.2560 C   0  0  0  0  0  0  0  0  0  0  0  0
   42.8770   33.4450   40.0920 N   0  0  0  0  0  0  0  0  0  0  0  0
   39.7060   33.5800   41.7090 F   0  0  0  0  0  0  0  0  0  0  0  0
   39.5240   33.8050   40.3880 C   0  0  0  0  0  0  0  0  0  0  0  0
   40.6180   34.2060   39.6320 C   0  0  0  0  0  0  0  0  0  0  0  0
   40.5250   34.4600   38.2690 C   0  0  0  0  0  0  0  0  0  0  0  0
   39.2720   34.2930   37.6790 C   0  0  0  0  0  0  0  0  0  0  0  0
   38.1530   33.8890   38.4220 C   0  0  0  0  0  0  0  0  0  0  0  0
   38.2890   33.6440   39.7930 C   0  0  0  0  0  0  0  0  0  0  0  0
   45.6550   34.9210   42.0770 C   0  0  0  0  0  0  0  0  0  0  0  0
   46.8210   34.6880   41.4570 C   0  0  0  0  0  0  0  0  0  0  0  0
   48.1190   34.9220   42.1690 C   0  0  0  0  0  0  0  0  0  0  0  0
   49.2080   34.1880   41.5860 N   0  0  0  0  0  0  0  0  0  0  0  0
   50.3420   34.1900   42.4530 C   0  0  0  0  0  0  0  0  0  0  0  0
   51.0380   32.8630   42.2720 C   0  0  0  0  0  0  0  0  0  0  0  0
   49.9080   31.9520   41.8800 C   0  0  0  0  0  0  0  0  0  0  0  0
   48.8490   32.8420   41.2820 C   0  0  2  0  0  0  0  0  0  0  0  0
   48.9390   32.5820   39.7720 C   0  0  0  0  0  0  0  0  0  0  0  0
   44.8340   32.7966   40.4988 H   0  0  0  0  0  0  0  0  0  0  0  0
   43.5415   36.5826   42.2018 H   0  0  0  0  0  0  0  0  0  0  0  0
   41.3993   34.7782   37.6822 H   0  0  0  0  0  0  0  0  0  0  0  0
   39.1584   34.4834   36.6016 H   0  0  0  0  0  0  0  0  0  0  0  0
   37.1764   33.7658   37.9309 H   0  0  0  0  0  0  0  0  0  0  0  0
   37.4213   33.3266   40.3899 H   0  0  0  0  0  0  0  0  0  0  0  0
   45.6741   35.2853   43.1147 H   0  0  0  0  0  0  0  0  0  0  0  0
   46.8249   34.3229   40.4194 H   0  0  0  0  0  0  0  0  0  0  0  0
   48.3553   35.9955   42.1275 H   0  0  0  0  0  0  0  0  0  0  0  0
   47.9986   34.5734   43.2053 H   0  0  0  0  0  0  0  0  0  0  0  0
   51.0213   35.0126   42.1847 H   0  0  0  0  0  0  0  0  0  0  0  0
   50.0357   34.3331   43.4997 H   0  0  0  0  0  0  0  0  0  0  0  0
   51.7977   32.9178   41.4784 H   0  0  0  0  0  0  0  0  0  0  0  0
   51.5805   32.5272   43.1681 H   0  0  0  0  0  0  0  0  0  0  0  0
   50.2505   31.2141   41.1396 H   0  0  0  0  0  0  0  0  0  0  0  0
   49.5232   31.3906   42.7442 H   0  0  0  0  0  0  0  0  0  0  0  0
   47.8317   32.6572   41.6573 H   0  0  0  0  0  0  0  0  0  0  0  0
   49.2942   31.5557   39.5972 H   0  0  0  0  0  0  0  0  0  0  0  0
   47.9449   32.7082   39.3183 H   0  0  0  0  0  0  0  0  0  0  0  0
   49.6424   33.2958   39.3183 H   0  0  0  0  0  0  0  0  0  0  0  0
  1  2  2  0
  2  3  1  0
  2 14  1  0
  4  3  2  0
  5  4  1  0
  6  5  2  0
  6  1  1  0
  8  7  1  0
  9  5  1  0
  9  8  2  0
 10  9  1  0
 11 10  2  0
 11 12  1  0
 12 13  2  0
 13  8  1  0
 15 14  2  0
 15 16  1  0
 17 16  1  0
 17 18  1  0
 19 18  1  0
 20 19  1  0
 21 17  1  0
 21 20  1  0
 22 21  1  0
  1 23  1  0
  3 24  1  0
 10 25  1  0
 11 26  1  0
 12 27  1  0
 13 28  1  0
 14 29  1  0
 15 30  1  0
 16 31  1  0
 16 32  1  0
 18 33  1  0
 18 34  1  0
 19 35  1  0
 19 36  1  0
 20 37  1  0
 20 38  1  0
 21 39  1  1
 22 40  1  0
 22 41  1  0
 22 42  1  0
M  ISO  8  23  14  24  14  25  14  26  14  27  14  28  14  31   8  32   8
M  ISO  8  33  13  34  13  35  13  36  13  37  13  38  13  39  13  40   8
M  ISO  2  41   8  42   8
M  END
>  <minimizedAffinity>  (1) 
-6.07133913

>  <minimizedRMSD>  (1) 
0.285578698

$$$$
