
     RDKit          3D

 23 24  0  0  0  0  0  0  0  0999 V2000
   44.8030   35.1600   45.0520 C   0  0  0  0  0  0  0  0  0  0  0  0
   45.4550   35.2870   43.8200 C   0  0  0  0  0  0  0  0  0  0  0  0
   46.4950   34.4130   43.5450 C   0  0  0  0  0  0  0  0  0  0  0  0
   46.7890   33.5050   44.4960 N   0  0  0  0  0  0  0  0  0  0  0  0
   46.1650   33.3830   45.6720 C   0  0  0  0  0  0  0  0  0  0  0  0
   45.1520   34.2230   45.9650 N   0  0  0  0  0  0  0  0  0  0  0  0
   45.2970   32.6840   41.5410 Cl  0  0  0  0  0  0  0  0  0  0  0  0
   46.6290   33.7950   41.3110 C   0  0  0  0  0  0  0  0  0  0  0  0
   47.2210   34.5980   42.2900 C   0  0  0  0  0  0  0  0  0  0  0  0
   48.2780   35.4170   41.9750 C   0  0  0  0  0  0  0  0  0  0  0  0
   48.7420   35.4310   40.6780 C   0  0  0  0  0  0  0  0  0  0  0  0
   48.1830   34.6460   39.6700 C   0  0  0  0  0  0  0  0  0  0  0  0
   47.1140   33.8180   39.9940 C   0  0  0  0  0  0  0  0  0  0  0  0
   44.9430   36.3850   42.9750 C   0  0  0  0  0  0  0  0  0  0  0  0
   43.9765   35.8468   45.2872 H   0  0  0  0  0  0  0  0  0  0  0  0
   46.4735   32.6088   46.3899 H   0  0  0  0  0  0  0  0  0  0  0  0
   48.7451   36.0498   42.7440 H   0  0  0  0  0  0  0  0  0  0  0  0
   49.5878   36.0881   40.4272 H   0  0  0  0  0  0  0  0  0  0  0  0
   48.5780   34.6810   38.6440 H   0  0  0  0  0  0  0  0  0  0  0  0
   46.6511   33.1847   39.2228 H   0  0  0  0  0  0  0  0  0  0  0  0
   44.5652   37.1953   43.6159 H   0  0  0  0  0  0  0  0  0  0  0  0
   45.7553   36.7683   42.3399 H   0  0  0  0  0  0  0  0  0  0  0  0
   44.1273   36.0091   42.3399 H   0  0  0  0  0  0  0  0  0  0  0  0
  1  6  2  0
  2  1  1  0
  3  2  2  0
  3  4  1  0
  4  5  2  0
  5  6  1  0
  8  7  1  0
  8  9  2  0
  9  3  1  0
 10  9  1  0
 11 10  2  0
 12 13  2  0
 12 11  1  0
 13  8  1  0
 14  2  1  0
  1 15  1  0
  5 16  1  0
 10 17  1  0
 11 18  1  0
 12 19  1  0
 13 20  1  0
 14 21  1  0
 14 22  1  0
 14 23  1  0
M  ISO  8  15  14  16  14  17  14  18  14  19  14  20  14  21   8  22   8
M  ISO  1  23   8
M  END
>  <minimizedAffinity>  (1) 
-5.0933032

>  <minimizedRMSD>  (1) 
2.37573647

$$$$
