
     RDKit          3D

 26 27  0  0  1  0  0  0  0  0999 V2000
   44.9610   34.9490   45.0690 C   0  0  0  0  0  0  0  0  0  0  0  0
   45.4660   35.2420   43.8100 C   0  0  0  0  0  0  0  0  0  0  0  0
   46.5140   34.4680   43.3290 C   0  0  0  0  0  0  0  0  0  0  0  0
   46.9830   33.4750   44.1070 N   0  0  0  0  0  0  0  0  0  0  0  0
   46.4830   33.2050   45.3220 C   0  0  0  0  0  0  0  0  0  0  0  0
   45.4670   33.9360   45.8200 N   0  0  0  0  0  0  0  0  0  0  0  0
   47.1040   33.6630   41.0420 C   0  0  2  0  0  0  0  0  0  0  0  0
   47.0120   34.8280   41.9810 C   0  0  2  0  0  0  0  0  0  0  0  0
   48.3480   35.2480   42.1780 O   0  0  0  0  0  0  0  0  0  0  0  0
   49.1310   34.1050   42.0940 C   0  0  0  0  0  0  0  0  0  0  0  0
   48.5550   33.2830   40.9550 C   0  0  2  0  0  0  0  0  0  0  0  0
   46.6660   34.1200   39.7880 O   0  0  0  0  0  0  0  0  0  0  0  0
   49.1160   33.6230   39.7150 O   0  0  0  0  0  0  0  0  0  0  0  0
   44.8130   36.3800   43.1030 C   0  0  0  0  0  0  0  0  0  0  0  0
   44.1315   35.5511   45.4684 H   0  0  0  0  0  0  0  0  0  0  0  0
   46.9055   32.3810   45.9158 H   0  0  0  0  0  0  0  0  0  0  0  0
   46.5034   32.8020   41.3706 H   0  0  0  0  0  0  0  0  0  0  0  0
   46.3250   35.5696   41.5473 H   0  0  0  0  0  0  0  0  0  0  0  0
   50.1763   34.3731   41.8808 H   0  0  0  0  0  0  0  0  0  0  0  0
   49.1238   33.5425   43.0393 H   0  0  0  0  0  0  0  0  0  0  0  0
   48.7492   32.2032   41.0339 H   0  0  0  0  0  0  0  0  0  0  0  0
   45.9866   34.8289   39.9140 H   0  0  0  0  0  0  0  0  0  0  0  0
   49.9535   34.1306   39.8598 H   0  0  0  0  0  0  0  0  0  0  0  0
   44.4075   37.0867   43.8420 H   0  0  0  0  0  0  0  0  0  0  0  0
   45.5538   36.8936   42.4726 H   0  0  0  0  0  0  0  0  0  0  0  0
   43.9958   35.9996   42.4726 H   0  0  0  0  0  0  0  0  0  0  0  0
  1  6  2  0
  2  1  1  0
  3  2  2  0
  3  4  1  0
  4  5  2  0
  5  6  1  0
  7 12  1  0
  7  8  1  0
  8  9  1  0
  8  3  1  0
 10  9  1  0
 11 13  1  0
 11  7  1  0
 11 10  1  0
 14  2  1  0
  1 15  1  0
  5 16  1  0
  7 17  1  1
  8 18  1  6
 10 19  1  0
 10 20  1  0
 11 21  1  1
 12 22  1  0
 13 23  1  0
 14 24  1  0
 14 25  1  0
 14 26  1  0
M  ISO  8  15  14  16  14  17  13  18  13  19  13  20  13  21  13  22   3
M  ISO  4  23   3  24   8  25   8  26   8
M  END
>  <minimizedAffinity>  (1) 
-4.56788826

>  <minimizedRMSD>  (1) 
3.13933253

$$$$
