
     RDKit          3D

 20 21  0  0  0  0  0  0  0  0999 V2000
   44.9000   35.0580   44.8170 C   0  0  0  0  0  0  0  0  0  0  0  0
   45.5530   35.2150   43.5810 C   0  0  0  0  0  0  0  0  0  0  0  0
   46.6430   34.3870   43.3200 C   0  0  0  0  0  0  0  0  0  0  0  0
   47.0010   33.4940   44.2590 N   0  0  0  0  0  0  0  0  0  0  0  0
   46.3510   33.3640   45.4420 C   0  0  0  0  0  0  0  0  0  0  0  0
   45.2900   34.1450   45.7370 N   0  0  0  0  0  0  0  0  0  0  0  0
   47.2890   34.5730   42.0510 C   0  0  0  0  0  0  0  0  0  0  0  0
   47.1240   34.0880   40.7850 C   0  0  0  0  0  0  0  0  0  0  0  0
   48.0700   34.6360   39.9350 C   0  0  0  0  0  0  0  0  0  0  0  0
   48.7910   35.4490   40.7230 N   0  0  0  0  0  0  0  0  0  0  0  0
   48.3420   35.4230   41.9770 N   0  0  0  0  0  0  0  0  0  0  0  0
   45.0010   36.2560   42.6910 C   0  0  0  0  0  0  0  0  0  0  0  0
   44.0384   35.7027   45.0449 H   0  0  0  0  0  0  0  0  0  0  0  0
   46.6923   32.6133   46.1700 H   0  0  0  0  0  0  0  0  0  0  0  0
   46.3508   33.3659   40.4838 H   0  0  0  0  0  0  0  0  0  0  0  0
   48.2008   34.4479   38.8591 H   0  0  0  0  0  0  0  0  0  0  0  0
   49.5867   36.0181   40.4006 H   0  0  0  0  0  0  0  0  0  0  0  0
   44.5711   37.0667   43.2976 H   0  0  0  0  0  0  0  0  0  0  0  0
   45.8038   36.6591   42.0562 H   0  0  0  0  0  0  0  0  0  0  0  0
   44.2169   35.8176   42.0562 H   0  0  0  0  0  0  0  0  0  0  0  0
  1  6  2  0
  2  1  1  0
  3  2  2  0
  3  4  1  0
  4  5  2  0
  5  6  1  0
  7  3  1  0
  8  7  1  0
  9 10  1  0
  9  8  2  0
 10 11  1  0
 11  7  2  0
 12  2  1  0
  1 13  1  0
  5 14  1  0
  8 15  1  0
  9 16  1  0
 10 17  1  0
 12 18  1  0
 12 19  1  0
 12 20  1  0
M  ISO  8  13  14  14  14  15  14  16  14  17   9  18   8  19   8  20   8
M  END
>  <minimizedAffinity>  (1) 
-4.42026949

>  <minimizedRMSD>  (1) 
2.40231538

$$$$
