
     RDKit          3D

 16 16  0  0  0  0  0  0  0  0999 V2000
   44.3690   35.7710   44.4500 C   0  0  0  0  0  0  0  0  0  0  0  0
   44.6830   35.0780   43.2840 C   0  0  0  0  0  0  0  0  0  0  0  0
   45.3380   33.8600   43.3990 C   0  0  0  0  0  0  0  0  0  0  0  0
   45.6410   33.4000   44.6280 N   0  0  0  0  0  0  0  0  0  0  0  0
   45.3200   34.1020   45.7440 C   0  0  0  0  0  0  0  0  0  0  0  0
   44.6750   35.3060   45.6780 N   0  0  0  0  0  0  0  0  0  0  0  0
   44.2680   35.7460   42.0260 C   0  0  0  0  0  0  0  0  0  0  0  0
   45.6320   33.1960   42.1200 C   0  0  0  0  0  0  0  0  0  0  0  0
   43.8501   36.7373   44.3659 H   0  0  0  0  0  0  0  0  0  0  0  0
   45.5860   33.6912   46.7291 H   0  0  0  0  0  0  0  0  0  0  0  0
   43.7014   36.6581   42.2648 H   0  0  0  0  0  0  0  0  0  0  0  0
   45.1604   36.0116   41.4402 H   0  0  0  0  0  0  0  0  0  0  0  0
   43.6346   35.0636   41.4402 H   0  0  0  0  0  0  0  0  0  0  0  0
   46.0704   32.2058   42.3132 H   0  0  0  0  0  0  0  0  0  0  0  0
   44.7015   33.0792   41.5451 H   0  0  0  0  0  0  0  0  0  0  0  0
   46.3440   33.8064   41.5451 H   0  0  0  0  0  0  0  0  0  0  0  0
  1  6  2  0
  2  3  2  0
  2  1  1  0
  3  4  1  0
  4  5  2  0
  6  5  1  0
  7  2  1  0
  8  3  1  0
  1  9  1  0
  5 10  1  0
  7 11  1  0
  7 12  1  0
  7 13  1  0
  8 14  1  0
  8 15  1  0
  8 16  1  0
M  ISO  8   9  14  10  14  11   8  12   8  13   8  14   8  15   8  16   8
M  END
>  <minimizedAffinity>  (1) 
-2.90094543

>  <minimizedRMSD>  (1) 
0.0472487472

$$$$
