
     RDKit          3D

 14 14  0  0  0  0  0  0  0  0999 V2000
   44.3680   35.7800   44.4420 C   0  0  0  0  0  0  0  0  0  0  0  0
   44.6870   35.0690   43.2880 C   0  0  0  0  0  0  0  0  0  0  0  0
   45.3370   33.8480   43.4090 C   0  0  0  0  0  0  0  0  0  0  0  0
   45.6280   33.4100   44.6510 N   0  0  0  0  0  0  0  0  0  0  0  0
   45.3080   34.1160   45.7490 C   0  0  0  0  0  0  0  0  0  0  0  0
   44.6770   35.3060   45.6800 N   0  0  0  0  0  0  0  0  0  0  0  0
   44.2760   35.7340   42.0150 C   0  0  0  0  0  0  0  0  0  0  0  0
   45.6000   33.2430   42.2080 O   0  0  0  0  0  0  0  0  0  0  0  0
   43.8538   36.7482   44.3509 H   0  0  0  0  0  0  0  0  0  0  0  0
   45.5695   33.7096   46.7371 H   0  0  0  0  0  0  0  0  0  0  0  0
   43.7105   36.6490   42.2453 H   0  0  0  0  0  0  0  0  0  0  0  0
   45.1714   35.9935   41.4312 H   0  0  0  0  0  0  0  0  0  0  0  0
   43.6434   35.0492   41.4312 H   0  0  0  0  0  0  0  0  0  0  0  0
   46.0611   32.3672   42.1854 H   0  0  0  0  0  0  0  0  0  0  0  0
  1  6  2  0
  2  3  2  0
  2  1  1  0
  3  4  1  0
  4  5  2  0
  6  5  1  0
  7  2  1  0
  8  3  1  0
  1  9  1  0
  5 10  1  0
  7 11  1  0
  7 12  1  0
  7 13  1  0
  8 14  1  0
M  ISO  6   9  14  10  14  11   8  12   8  13   8  14   3
M  END
>  <minimizedAffinity>  (1) 
-2.89844871

>  <minimizedRMSD>  (1) 
0.0430170596

$$$$
