
     RDKit          3D

 27 28  0  0  0  0  0  0  0  0999 V2000
   44.9840   34.6130   45.3040 C   0  0  0  0  0  0  0  0  0  0  0  0
   45.5140   34.8900   44.0330 C   0  0  0  0  0  0  0  0  0  0  0  0
   46.6350   34.1440   43.6650 C   0  0  0  0  0  0  0  0  0  0  0  0
   47.1500   33.2120   44.5230 N   0  0  0  0  0  0  0  0  0  0  0  0
   46.5810   33.0010   45.7340 C   0  0  0  0  0  0  0  0  0  0  0  0
   45.5010   33.6920   46.1390 N   0  0  0  0  0  0  0  0  0  0  0  0
   47.2250   34.3980   42.3500 C   0  0  0  0  0  0  0  0  0  0  0  0
   48.2210   35.2710   42.0110 C   0  0  0  0  0  0  0  0  0  0  0  0
   48.6530   35.3770   40.7160 C   0  0  0  0  0  0  0  0  0  0  0  0
   48.0760   34.5950   39.7360 C   0  0  0  0  0  0  0  0  0  0  0  0
   47.0740   33.7090   40.0510 C   0  0  0  0  0  0  0  0  0  0  0  0
   46.6350   33.6020   41.3710 C   0  0  0  0  0  0  0  0  0  0  0  0
   44.8830   35.9020   43.1940 C   0  0  0  0  0  0  0  0  0  0  0  0
   42.9460   35.4240   41.7160 C   0  0  0  0  0  0  0  0  0  0  0  0
   43.6740   35.2580   40.7040 O   0  0  0  0  0  0  0  0  0  0  0  0
   43.4610   35.7460   43.0000 N   0  0  0  0  0  0  0  0  0  0  0  0
   44.1001   35.1782   45.6345 H   0  0  0  0  0  0  0  0  0  0  0  0
   47.0142   32.2439   46.4042 H   0  0  0  0  0  0  0  0  0  0  0  0
   48.6817   35.8970   42.7894 H   0  0  0  0  0  0  0  0  0  0  0  0
   49.4565   36.0824   40.4578 H   0  0  0  0  0  0  0  0  0  0  0  0
   48.4208   34.6816   38.6950 H   0  0  0  0  0  0  0  0  0  0  0  0
   46.6199   33.0867   39.2658 H   0  0  0  0  0  0  0  0  0  0  0  0
   45.8326   32.8975   41.6354 H   0  0  0  0  0  0  0  0  0  0  0  0
   45.0566   36.8841   43.6581 H   0  0  0  0  0  0  0  0  0  0  0  0
   45.3383   35.7973   42.1981 H   0  0  0  0  0  0  0  0  0  0  0  0
   41.8575   35.3145   41.6012 H   0  0  0  0  0  0  0  0  0  0  0  0
   42.8179   35.8686   43.7951 H   0  0  0  0  0  0  0  0  0  0  0  0
  1  6  2  0
  2  1  1  0
  3  2  2  0
  3  4  1  0
  4  5  2  0
  5  6  1  0
  7  3  1  0
  8  7  2  0
  9  8  1  0
 10 11  1  0
 10  9  2  0
 11 12  2  0
 12  7  1  0
 13  2  1  0
 14 16  1  0
 15 14  2  0
 16 13  1  0
  1 17  1  0
  5 18  1  0
  8 19  1  0
  9 20  1  0
 10 21  1  0
 11 22  1  0
 12 23  1  0
 13 24  1  0
 13 25  1  0
 14 26  1  0
 16 27  1  0
M  ISO  8  17  14  18  14  19  14  20  14  21  14  22  14  23  14  24   8
M  ISO  2  25   8  26   6
M  END
>  <minimizedAffinity>  (1) 
-5.43025827

>  <minimizedRMSD>  (1) 
2.03426981

$$$$
