
     RDKit          3D

 30 32  0  0  0  0  0  0  0  0999 V2000
   44.9370   34.6930   45.0640 C   0  0  0  0  0  0  0  0  0  0  0  0
   45.5210   34.9450   43.8270 C   0  0  0  0  0  0  0  0  0  0  0  0
   46.6870   34.2470   43.5250 C   0  0  0  0  0  0  0  0  0  0  0  0
   47.1920   33.3700   44.4300 N   0  0  0  0  0  0  0  0  0  0  0  0
   46.5750   33.1670   45.6230 C   0  0  0  0  0  0  0  0  0  0  0  0
   45.4450   33.8250   45.9490 N   0  0  0  0  0  0  0  0  0  0  0  0
   47.3300   34.4830   42.2330 C   0  0  0  0  0  0  0  0  0  0  0  0
   48.2830   35.4130   41.9010 C   0  0  0  0  0  0  0  0  0  0  0  0
   48.7650   35.4820   40.6110 C   0  0  0  0  0  0  0  0  0  0  0  0
   48.2870   34.6110   39.6530 C   0  0  0  0  0  0  0  0  0  0  0  0
   47.3210   33.6540   39.9600 C   0  0  0  0  0  0  0  0  0  0  0  0
   46.8480   33.6020   41.2620 C   0  0  0  0  0  0  0  0  0  0  0  0
   44.9080   35.9170   42.9090 C   0  0  0  0  0  0  0  0  0  0  0  0
   43.5810   35.5740   42.3910 C   0  0  0  0  0  0  0  0  0  0  0  0
   43.5220   34.2050   41.7000 C   0  0  0  0  0  0  0  0  0  0  0  0
   43.4320   35.4270   40.8550 C   0  0  0  0  0  0  0  0  0  0  0  0
   44.0149   35.2316   45.3279 H   0  0  0  0  0  0  0  0  0  0  0  0
   47.0066   32.4508   46.3377 H   0  0  0  0  0  0  0  0  0  0  0  0
   48.6635   36.1055   42.6663 H   0  0  0  0  0  0  0  0  0  0  0  0
   49.5280   36.2288   40.3463 H   0  0  0  0  0  0  0  0  0  0  0  0
   48.6763   34.6733   38.6261 H   0  0  0  0  0  0  0  0  0  0  0  0
   46.9455   32.9612   39.1925 H   0  0  0  0  0  0  0  0  0  0  0  0
   46.0843   32.8584   41.5337 H   0  0  0  0  0  0  0  0  0  0  0  0
   44.8218   36.8745   43.4436 H   0  0  0  0  0  0  0  0  0  0  0  0
   45.5676   35.9455   42.0292 H   0  0  0  0  0  0  0  0  0  0  0  0
   43.0270   36.1149   43.1724 H   0  0  0  0  0  0  0  0  0  0  0  0
   44.4240   33.5770   41.6562 H   0  0  0  0  0  0  0  0  0  0  0  0
   42.8960   33.3090   41.8234 H   0  0  0  0  0  0  0  0  0  0  0  0
   44.2683   35.6996   40.1945 H   0  0  0  0  0  0  0  0  0  0  0  0
   42.7166   35.8002   40.1074 H   0  0  0  0  0  0  0  0  0  0  0  0
  1  6  2  0
  2  1  1  0
  3  2  2  0
  3  4  1  0
  4  5  2  0
  5  6  1  0
  7  3  1  0
  8  7  2  0
  9  8  1  0
 10 11  1  0
 10  9  2  0
 11 12  2  0
 12  7  1  0
 13  2  1  0
 14 13  1  0
 15 14  1  0
 16 15  1  0
 16 14  1  0
  1 17  1  0
  5 18  1  0
  8 19  1  0
  9 20  1  0
 10 21  1  0
 11 22  1  0
 12 23  1  0
 13 24  1  0
 13 25  1  0
 14 26  1  0
 15 27  1  0
 15 28  1  0
 16 29  1  0
 16 30  1  0
M  ISO  8  17  14  18  14  19  14  20  14  21  14  22  14  23  14  24   8
M  ISO  6  25   8  26  13  27  13  28  13  29  13  30  13
M  END
>  <minimizedAffinity>  (1) 
-5.18290854

>  <minimizedRMSD>  (1) 
1.72979164

$$$$
