
     RDKit          3D

 25 26  0  0  0  0  0  0  0  0999 V2000
   44.7250   35.2050   45.0750 C   0  0  0  0  0  0  0  0  0  0  0  0
   45.3620   35.3360   43.8330 C   0  0  0  0  0  0  0  0  0  0  0  0
   46.4030   34.4780   43.5480 C   0  0  0  0  0  0  0  0  0  0  0  0
   46.7580   33.5490   44.4890 N   0  0  0  0  0  0  0  0  0  0  0  0
   46.1140   33.4600   45.6790 C   0  0  0  0  0  0  0  0  0  0  0  0
   45.0930   34.2840   45.9850 N   0  0  0  0  0  0  0  0  0  0  0  0
   47.0800   34.5880   42.2720 C   0  0  0  0  0  0  0  0  0  0  0  0
   48.1700   35.3580   41.9490 C   0  0  0  0  0  0  0  0  0  0  0  0
   48.6780   35.3320   40.6680 C   0  0  0  0  0  0  0  0  0  0  0  0
   48.0850   34.5240   39.7000 C   0  0  0  0  0  0  0  0  0  0  0  0
   46.9920   33.7450   40.0120 C   0  0  0  0  0  0  0  0  0  0  0  0
   46.5010   33.7900   41.3070 C   0  0  0  0  0  0  0  0  0  0  0  0
   44.8900   36.3860   42.9170 C   0  0  0  0  0  0  0  0  0  0  0  0
   45.0080   37.6410   43.6560 N   0  0  0  0  0  0  0  0  0  0  0  0
   43.8916   35.8815   45.3153 H   0  0  0  0  0  0  0  0  0  0  0  0
   46.4313   32.7004   46.4086 H   0  0  0  0  0  0  0  0  0  0  0  0
   48.6381   35.9960   42.7131 H   0  0  0  0  0  0  0  0  0  0  0  0
   49.5513   35.9490   40.4099 H   0  0  0  0  0  0  0  0  0  0  0  0
   48.4927   34.5079   38.6785 H   0  0  0  0  0  0  0  0  0  0  0  0
   46.5212   33.1037   39.2523 H   0  0  0  0  0  0  0  0  0  0  0  0
   45.6286   33.1746   41.5720 H   0  0  0  0  0  0  0  0  0  0  0  0
   43.8425   36.2051   42.6340 H   0  0  0  0  0  0  0  0  0  0  0  0
   45.4776   36.4066   41.9873 H   0  0  0  0  0  0  0  0  0  0  0  0
   44.9898   37.4469   44.6674 H   0  0  0  0  0  0  0  0  0  0  0  0
   45.8960   38.1016   43.4108 H   0  0  0  0  0  0  0  0  0  0  0  0
  1  6  2  0
  2  1  1  0
  3  2  2  0
  3  4  1  0
  4  5  2  0
  5  6  1  0
  7  3  1  0
  8  7  2  0
  9  8  1  0
 10 11  1  0
 10  9  2  0
 11 12  2  0
 12  7  1  0
 13 14  1  0
 13  2  1  0
  1 15  1  0
  5 16  1  0
  8 17  1  0
  9 18  1  0
 10 19  1  0
 11 20  1  0
 12 21  1  0
 13 22  1  0
 13 23  1  0
 14 24  1  0
 14 25  1  0
M  ISO  8  15  14  16  14  17  14  18  14  19  14  20  14  21  14  22   8
M  ISO  3  23   8  24   5  25   5
M  END
>  <minimizedAffinity>  (1) 
-5.19050455

>  <minimizedRMSD>  (1) 
0.365432531

$$$$
