
     RDKit          3D

 28 29  0  0  0  0  0  0  0  0999 V2000
   44.7530   35.3620   45.1530 C   0  0  0  0  0  0  0  0  0  0  0  0
   45.4270   35.4970   43.9340 C   0  0  0  0  0  0  0  0  0  0  0  0
   46.3400   34.5320   43.5780 C   0  0  0  0  0  0  0  0  0  0  0  0
   46.5380   33.4940   44.4360 N   0  0  0  0  0  0  0  0  0  0  0  0
   45.8660   33.4000   45.6050 C   0  0  0  0  0  0  0  0  0  0  0  0
   44.9680   34.3290   45.9790 N   0  0  0  0  0  0  0  0  0  0  0  0
   47.0450   34.6560   42.3220 C   0  0  0  0  0  0  0  0  0  0  0  0
   48.1640   35.3840   42.0410 C   0  0  0  0  0  0  0  0  0  0  0  0
   48.6820   35.3630   40.7580 C   0  0  0  0  0  0  0  0  0  0  0  0
   48.0860   34.6160   39.7580 C   0  0  0  0  0  0  0  0  0  0  0  0
   46.9580   33.8760   40.0300 C   0  0  0  0  0  0  0  0  0  0  0  0
   46.4550   33.9100   41.3160 C   0  0  0  0  0  0  0  0  0  0  0  0
   45.1070   36.6800   43.1070 C   0  0  0  0  0  0  0  0  0  0  0  0
   44.9560   37.7930   44.0430 N   0  0  0  0  0  0  0  0  0  0  0  0
   45.4410   39.0270   43.4970 C   0  0  0  0  0  0  0  0  0  0  0  0
   44.0214   36.1305   45.4431 H   0  0  0  0  0  0  0  0  0  0  0  0
   46.0582   32.5426   46.2668 H   0  0  0  0  0  0  0  0  0  0  0  0
   48.6496   35.9817   42.8264 H   0  0  0  0  0  0  0  0  0  0  0  0
   49.5834   35.9506   40.5294 H   0  0  0  0  0  0  0  0  0  0  0  0
   48.5139   34.6134   38.7446 H   0  0  0  0  0  0  0  0  0  0  0  0
   46.4717   33.2756   39.2470 H   0  0  0  0  0  0  0  0  0  0  0  0
   45.5539   33.3237   41.5490 H   0  0  0  0  0  0  0  0  0  0  0  0
   45.9233   36.8838   42.3984 H   0  0  0  0  0  0  0  0  0  0  0  0
   44.1938   36.5237   42.5140 H   0  0  0  0  0  0  0  0  0  0  0  0
   43.9577   37.9010   44.2722 H   0  0  0  0  0  0  0  0  0  0  0  0
   45.7095   39.7101   44.3163 H   0  0  0  0  0  0  0  0  0  0  0  0
   46.3287   38.8302   42.8779 H   0  0  0  0  0  0  0  0  0  0  0  0
   44.6569   39.4873   42.8779 H   0  0  0  0  0  0  0  0  0  0  0  0
  1  6  2  0
  2  1  1  0
  3  2  2  0
  3  4  1  0
  4  5  2  0
  5  6  1  0
  7  3  1  0
  8  7  2  0
  9  8  1  0
 10 11  1  0
 10  9  2  0
 11 12  2  0
 12  7  1  0
 13  2  1  0
 13 14  1  0
 15 14  1  0
  1 16  1  0
  5 17  1  0
  8 18  1  0
  9 19  1  0
 10 20  1  0
 11 21  1  0
 12 22  1  0
 13 23  1  0
 13 24  1  0
 14 25  1  0
 15 26  1  0
 15 27  1  0
 15 28  1  0
M  ISO  8  16  14  17  14  18  14  19  14  20  14  21  14  22  14  23   8
M  ISO  5  24   8  25   5  26   8  27   8  28   8
M  END
>  <minimizedAffinity>  (1) 
-4.83067942

>  <minimizedRMSD>  (1) 
0.351971775

$$$$
